15
Properties=species:S:1:pos:R:3:Z:I:1 pbc="F F F"
O       2.42330000       0.59160000       0.21670000        8 
O      -1.11570000       2.14440000      -0.79020000        8 
C      -1.53970000       0.05370000       0.23010000        6 
C      -0.68270000      -0.81010000      -0.68680000        6 
C      -1.06130000       1.47340000       0.22830000        6 
C       1.86990000      -0.68720000       0.16230000        6 
H      -2.59950000       0.01790000      -0.10180000        1 
H      -1.48050000      -0.34930000       1.26350000        1 
H       0.63860000      -0.75330000      -0.28610000        1 
H      -1.02780000      -1.86420000      -0.63560000        1 
H      -0.76410000      -0.45990000      -1.73800000        1 
H      -0.67310000       1.91530000       1.14030000        1 
H       2.44020000      -1.30600000      -0.56070000        1 
H       1.91830000      -1.15730000       1.16680000        1 
H       1.65410000       1.19100000       0.39130000        1 
