26
Properties=species:S:1:pos:R:3:Z:I:1 pbc="F F F"
O      -1.65340000      -0.87010000      -2.05350000        8 
C      -1.37290000       0.05850000       0.14950000        6 
C      -2.18830000      -0.87410000      -0.75860000        6 
C       2.32640000      -0.74170000       0.37630000        6 
C      -1.46360000       1.51390000      -0.32620000        6 
C      -1.84710000      -0.05710000       1.60220000        6 
C       3.02770000       0.38090000      -0.33530000        6 
C       0.98380000      -1.01630000      -0.28310000        6 
C       3.35070000       1.52010000       0.28390000        6 
H      -0.15330000      -0.30130000       0.10450000        1 
H       2.95750000      -1.65420000       0.32430000        1 
H       2.15640000      -0.49650000       1.44740000        1 
H      -3.25170000      -0.54420000      -0.78690000        1 
H      -2.14930000      -1.91020000      -0.35330000        1 
H      -2.51700000       1.86770000      -0.31120000        1 
H      -0.85520000       2.16890000       0.33290000        1 
H      -1.06690000       1.60690000      -1.35910000        1 
H      -1.73600000      -1.10330000       1.95810000        1 
H      -1.23200000       0.59540000       2.25770000        1 
H      -2.91340000       0.24330000       1.69280000        1 
H       3.28520000       0.25850000      -1.38360000        1 
H       1.12640000      -1.34860000      -1.33380000        1 
H       0.44090000      -1.80680000       0.27680000        1 
H       3.85990000       2.30760000      -0.26210000        1 
H       3.11270000       1.67910000       1.33110000        1 
H      -2.22720000      -1.47620000      -2.59060000        1 
