28
Properties=species:S:1:pos:R:3:Z:I:1 pbc="F F F"
O      -3.69150000       1.53080000       1.93980000        8 
C      -2.69510000       0.64590000      -0.04670000        6 
C      -1.57860000      -0.23540000      -0.62500000        6 
C       3.23930000      -0.40690000      -0.77560000        6 
C       1.79720000       0.01170000      -1.09710000        6 
C      -2.73930000       0.61170000       1.48230000        6 
C       4.00950000       0.67210000      -0.01530000        6 
C      -1.86240000      -1.72830000      -0.46880000        6 
C       0.91150000       0.07140000       0.14400000        6 
H       3.76910000      -0.60540000      -1.73230000        1 
H       3.24150000      -1.35060000      -0.18770000        1 
H      -0.44530000       0.05130000      -0.05650000        1 
H      -1.47900000      -0.01080000      -1.70910000        1 
H      -2.51140000       1.69350000      -0.37040000        1 
H      -3.67960000       0.33320000      -0.45860000        1 
H       1.35910000      -0.73230000      -1.79600000        1 
H       1.78720000       0.99910000      -1.60690000        1 
H      -1.73920000       0.87820000       1.89210000        1 
H      -3.01670000      -0.40720000       1.83050000        1 
H       3.58080000       0.82040000       0.99750000        1 
H       3.98450000       1.63270000      -0.57240000        1 
H       5.06830000       0.35800000       0.09950000        1 
H      -1.83900000      -2.02120000       0.60090000        1 
H      -2.85190000      -1.98460000      -0.90360000        1 
H      -1.08020000      -2.30800000      -1.00220000        1 
H       1.21210000       0.90180000       0.81610000        1 
H       0.92470000      -0.89530000       0.69080000        1 
H      -3.67570000       1.47390000       2.93060000        1 
