16
Properties=species:S:1:pos:R:3:Z:I:1 pbc="F F F"
O       2.79640000       1.54490000       0.32300000        8 
C      -0.80430000      -0.42610000       0.42060000        6 
C      -1.94580000      -1.23640000      -0.18560000        6 
C       2.06950000       0.39450000       0.00560000        6 
C      -0.53810000       0.84190000      -0.38080000        6 
H       0.11860000      -1.04410000       0.43930000        1 
H      -1.06200000      -0.14820000       1.46470000        1 
H      -2.88180000      -0.63820000      -0.19350000        1 
H      -1.69470000      -1.53910000      -1.22460000        1 
H      -2.11410000      -2.15160000       0.42020000        1 
H       0.85870000       0.71150000      -0.32630000        1 
H       2.55430000      -0.11930000      -0.84980000        1 
H       2.05050000      -0.29590000       0.87630000        1 
H      -1.43340000       1.49960000      -0.38670000        1 
H      -0.24110000       0.59480000      -1.42230000        1 
H       2.26720000       2.01160000       1.02000000        1 
