20
Properties=species:S:1:pos:R:3:Z:I:1 pbc="F F F"
O       3.63980000      -2.18410000       0.84140000        8 
C      -2.30250000       0.59290000      -0.54930000        6 
C       1.97680000      -0.51830000       0.61540000        6 
C      -2.68390000      -0.08740000       0.75990000        6 
C       1.32110000      -0.23440000      -0.72940000        6 
C      -0.89440000       1.16590000      -0.46910000        6 
C       3.35590000      -1.07300000       0.42350000        6 
H      -2.34540000      -0.15100000      -1.37330000        1 
H      -3.02380000       1.40920000      -0.76920000        1 
H       1.34660000      -1.23730000       1.18270000        1 
H       2.04340000       0.42470000       1.19780000        1 
H      -1.97380000      -0.91140000       0.98650000        1 
H      -3.70630000      -0.51180000       0.67410000        1 
H      -2.67280000       0.64660000       1.59390000        1 
H       0.10260000       0.25580000      -0.52880000        1 
H       1.23620000      -1.17010000      -1.32250000        1 
H       1.91540000       0.51090000      -1.30050000        1 
H      -0.60370000       1.59530000      -1.45100000        1 
H      -0.84200000       1.96080000       0.30520000        1 
H       4.11070000      -0.48350000      -0.08730000        1 
