18
Properties=species:S:1:pos:R:3:Z:I:1 pbc="F F F"
O       3.09690000       0.67520000       1.24500000        8 
C      -1.42510000       1.24210000      -0.08350000        6 
C       2.14490000      -0.25750000      -0.69530000        6 
C      -1.50340000      -0.22350000       0.23000000        6 
C       2.82420000       0.83140000       0.06610000        6 
C      -0.25450000      -1.05120000       0.20390000        6 
C      -2.68010000      -0.78770000       0.53100000        6 
H      -2.05750000       1.47290000      -0.96690000        1 
H      -0.37940000       1.54090000      -0.30930000        1 
H      -1.78190000       1.83330000       0.78630000        1 
H       0.92910000      -0.55140000      -0.09930000        1 
H       1.96840000       0.06800000      -1.74180000        1 
H       2.78240000      -1.16630000      -0.70000000        1 
H       3.07590000       1.76570000      -0.42520000        1 
H      -0.34020000      -1.85540000      -0.55710000        1 
H      -0.06330000      -1.49330000       1.20460000        1 
H      -2.74590000      -1.84740000       0.75920000        1 
H      -3.59050000      -0.19580000       0.55240000        1 
