23
Properties=species:S:1:pos:R:3:Z:I:1 pbc="F F F"
O      -2.65520000       0.42220000       1.65470000        8 
C      -0.95020000      -0.67080000       0.32470000        6 
C      -1.59000000      -0.29180000      -1.01970000        6 
C      -1.27120000       0.31440000       1.45580000        6 
C      -0.96610000       0.95930000      -1.63550000        6 
C       2.50620000      -0.16060000       0.53850000        6 
C       1.62800000      -1.20660000      -0.06950000        6 
C       2.89310000       0.90220000      -0.16860000        6 
H      -2.68510000      -0.14450000      -0.90140000        1 
H      -1.44060000      -1.13710000      -1.72540000        1 
H       0.41670000      -0.75240000       0.17610000        1 
H      -1.31300000      -1.67970000       0.61880000        1 
H      -0.85880000       1.31620000       1.21880000        1 
H      -0.77580000      -0.02850000       2.39190000        1 
H       0.13620000       0.84740000      -1.71330000        1 
H      -1.20600000       1.85740000      -1.02960000        1 
H      -1.37760000       1.11220000      -2.65540000        1 
H       2.82250000      -0.26140000       1.57250000        1 
H       2.15180000      -1.69690000      -0.91710000        1 
H       1.36830000      -1.97250000       0.69090000        1 
H       2.58390000       1.02770000      -1.20220000        1 
H       3.52570000       1.65690000       0.28730000        1 
H      -2.94280000      -0.41310000       2.10770000        1 
