28
Properties=species:S:1:pos:R:3:Z:I:1 pbc="F F F"
O      -4.15050000       1.20660000       0.01830000        8 
C       2.59910000       0.33260000       0.09140000        6 
C      -1.96430000       0.28790000      -0.39700000        6 
C      -0.88800000      -0.68890000       0.09710000        6 
C      -3.26470000       0.19340000       0.41000000        6 
C       2.98110000       1.56170000      -0.73810000        6 
C       2.01650000       0.75630000       1.44260000        6 
C      -1.21700000      -2.14460000      -0.22780000        6 
C       1.58990000      -0.52470000      -0.67170000        6 
H       3.51470000      -0.27230000       0.27300000        1 
H       0.23350000      -0.38800000      -0.48740000        1 
H      -0.73890000      -0.57450000       1.19290000        1 
H      -2.17420000       0.10650000      -1.47360000        1 
H      -1.56280000       1.31990000      -0.30180000        1 
H      -3.04240000       0.32190000       1.49070000        1 
H      -3.74250000      -0.80210000       0.27150000        1 
H       3.72590000       2.17730000      -0.18980000        1 
H       3.43650000       1.24710000      -1.70140000        1 
H       2.08580000       2.18500000      -0.95090000        1 
H       1.77550000      -0.13980000       2.05360000        1 
H       1.09000000       1.35360000       1.30030000        1 
H       2.75560000       1.36720000       2.00370000        1 
H      -2.10170000      -2.48660000       0.34810000        1 
H      -1.41110000      -2.26480000      -1.31460000        1 
H      -0.35370000      -2.78500000       0.04900000        1 
H       2.01270000      -0.85020000      -1.64620000        1 
H       1.32110000      -1.42760000      -0.08280000        1 
H      -4.52610000       0.93220000      -0.85900000        1 
