23
Properties=species:S:1:pos:R:3:Z:I:1 pbc="F F F"
O      -0.73470000      -0.37930000       1.62790000        8 
C      -1.24340000       0.27610000       0.49130000        6 
C      -0.08180000       0.75390000      -0.39640000        6 
C      -2.11240000       1.47270000       0.92100000        6 
C      -2.10170000      -0.72540000      -0.29300000        6 
C       2.61380000      -1.11670000      -0.34150000        6 
C       1.57820000      -1.03920000      -1.41350000        6 
C       3.14850000      -0.00700000       0.16810000        6 
H       0.72190000      -0.34100000      -0.76040000        1 
H       0.55140000       1.48640000       0.14870000        1 
H      -0.46510000       1.23880000      -1.32020000        1 
H      -2.93650000       1.13160000       1.58360000        1 
H      -1.50350000       2.21630000       1.47860000        1 
H      -2.55430000       1.97600000       0.03400000        1 
H      -2.93910000      -1.09300000       0.33840000        1 
H      -2.52690000      -0.25320000      -1.20510000        1 
H      -1.49020000      -1.60120000      -0.59970000        1 
H       2.93260000      -2.08790000       0.02450000        1 
H       0.63960000      -1.51480000      -1.06090000        1 
H       1.94130000      -1.56290000      -2.32200000        1 
H       2.84240000       0.97340000      -0.18530000        1 
H       3.90070000      -0.07500000       0.94720000        1 
H      -0.18080000       0.27140000       2.13470000        1 
