26
Properties=species:S:1:pos:R:3:Z:I:1 pbc="F F F"
O       3.46000000       0.63420000       1.18010000        8 
C       2.07030000       0.08010000      -0.72250000        6 
C       2.32390000       1.03230000       0.45890000        6 
C       0.94550000       0.62470000      -1.60780000        6 
C       1.71830000      -1.33110000      -0.23520000        6 
C      -3.19730000       0.04620000       1.49630000        6 
C      -2.31180000      -0.23230000       0.31190000        6 
C      -1.33890000       0.79980000      -0.18310000        6 
C      -2.37960000      -1.41820000      -0.30520000        6 
H       2.99620000       0.02050000      -1.33660000        1 
H       2.50960000       2.05680000       0.07080000        1 
H       1.42700000       1.08610000       1.12020000        1 
H      -0.24850000       0.72040000      -0.87150000        1 
H       0.78050000      -0.04630000      -2.47780000        1 
H       1.21260000       1.63110000      -1.99510000        1 
H       0.81530000      -1.30940000       0.41210000        1 
H       1.52170000      -1.99810000      -1.10160000        1 
H       2.56370000      -1.76450000       0.33950000        1 
H      -2.98570000      -0.68610000       2.30410000        1 
H      -4.26320000      -0.04080000       1.19670000        1 
H      -3.02950000       1.06800000       1.89640000        1 
H      -1.31210000       1.69380000       0.47430000        1 
H      -1.60800000       1.11250000      -1.21420000        1 
H      -1.74450000      -1.63860000      -1.15830000        1 
H      -3.07110000      -2.18340000       0.03540000        1 
H       3.14570000       0.04230000       1.91230000        1 
