28
Properties=species:S:1:pos:R:3:Z:I:1 pbc="F F F"
O       0.73760000      -1.96390000       1.44330000        8 
C      -2.30480000       0.12150000       0.58130000        6 
C       2.53190000      -0.70820000       0.44540000        6 
C       3.03950000      -0.01890000      -0.83000000        6 
C       1.09450000      -1.22260000       0.30840000        6 
C      -2.68920000      -0.86100000      -0.52730000        6 
C      -3.25380000       1.32410000       0.59810000        6 
C       2.35570000       1.32260000      -1.09170000        6 
C      -0.85690000       0.57650000       0.40090000        6 
H      -2.38380000      -0.40500000       1.55750000        1 
H       4.13040000       0.16310000      -0.71850000        1 
H       2.89910000      -0.68630000      -1.70790000        1 
H       3.19960000      -1.57100000       0.66000000        1 
H       2.59670000      -0.00950000       1.30760000        1 
H       0.28360000      -0.22680000       0.21240000        1 
H       0.98830000      -1.84720000      -0.60820000        1 
H      -3.72550000      -1.22890000      -0.36960000        1 
H      -2.00470000      -1.73610000      -0.51500000        1 
H      -2.62950000      -0.37260000      -1.52400000        1 
H      -3.20500000       1.87710000      -0.36470000        1 
H      -2.97970000       2.01550000       1.42340000        1 
H      -4.29840000       0.98410000       0.76400000        1 
H       1.28900000       1.17420000      -1.35810000        1 
H       2.85510000       1.83070000      -1.94340000        1 
H       2.42840000       1.97820000      -0.19800000        1 
H      -0.53400000       1.20720000       1.25640000        1 
H      -0.72770000       1.13870000      -0.54910000        1 
H       1.16380000      -2.85550000       1.34670000        1 
