26
Properties=species:S:1:pos:R:3:Z:I:1 pbc="F F F"
O      -0.72230000       0.70160000       1.25620000        8 
C      -1.62950000       0.15110000       0.33720000        6 
C      -2.97400000      -0.05000000       1.05030000        6 
C      -1.10030000      -1.20480000      -0.15860000        6 
C      -1.81210000       1.11580000      -0.84610000        6 
C       2.03200000      -0.64480000      -1.38030000        6 
C       2.38220000      -0.00280000      -0.06970000        6 
C       1.57900000       1.16450000       0.41800000        6 
C       3.40460000      -0.46930000       0.65880000        6 
H      -3.72690000      -0.48590000       0.35840000        1 
H      -2.85220000      -0.73380000       1.91790000        1 
H      -3.36000000       0.92150000       1.42750000        1 
H      -0.13460000      -1.07730000      -0.69300000        1 
H      -0.93430000      -1.89070000       0.69970000        1 
H      -1.82550000      -1.67750000      -0.85580000        1 
H      -2.56000000       0.71710000      -1.56520000        1 
H      -2.16050000       2.10720000      -0.48460000        1 
H      -0.85180000       1.26090000      -1.38570000        1 
H       2.89650000      -0.58040000      -2.07450000        1 
H       1.77080000      -1.71220000      -1.21930000        1 
H       1.16350000      -0.13470000      -1.84860000        1 
H       1.09570000       0.92230000       1.38810000        1 
H       2.22690000       2.05960000       0.52880000        1 
H       3.66500000      -0.01080000       1.60840000        1 
H       3.99240000      -1.31480000       0.31360000        1 
H       0.43540000       0.86790000       0.61870000        1 
