14
Properties=species:S:1:pos:R:3:Z:I:1 pbc="F F F"
O      -2.18760000      -0.88460000      -1.42420000        8 
C       1.67840000      -0.66240000       0.09950000        6 
C       0.44420000      -1.12060000       0.26180000        6 
C      -1.42360000       0.76360000       0.06630000        6 
C      -2.00950000      -0.56670000      -0.26040000        6 
C       1.90430000       0.72030000      -0.21790000        6 
C       2.09490000       1.88050000      -0.48430000        6 
H       2.52360000      -1.32980000       0.20560000        1 
H      -2.13890000       1.34450000       0.68470000        1 
H      -0.47550000       0.62620000       0.62630000        1 
H      -2.27820000      -1.25370000       0.53520000        1 
H      -0.67280000      -0.25320000       0.12480000        1 
H       0.27850000      -2.16300000       0.50090000        1 
H       2.26210000       2.89900000      -0.71810000        1 
