25
Properties=species:S:1:pos:R:3:Z:I:1 pbc="F F F"
O      -0.33100000       0.28820000      -1.71170000        8 
C      -1.28190000      -0.12960000      -0.76520000        6 
C      -0.96850000       0.49760000       0.60810000        6 
C       2.56280000      -0.74970000       0.30300000        6 
C      -2.69620000       0.20750000      -1.25700000        6 
C      -1.76820000      -0.13520000       1.74570000        6 
C       2.75410000      -0.16570000      -1.09150000        6 
C       1.62910000       0.12320000       1.12990000        6 
H      -1.20020000      -1.23480000      -0.67870000        1 
H       0.29460000       0.32420000       0.86170000        1 
H      -1.16240000       1.59230000       0.58490000        1 
H       3.54720000      -0.82760000       0.81280000        1 
H       2.12600000      -1.76750000       0.21580000        1 
H       3.42410000      -0.82560000      -1.68200000        1 
H       1.77670000      -0.09050000      -1.61450000        1 
H       3.21510000       0.84310000      -1.02770000        1 
H      -2.84890000       0.09470000       1.64290000        1 
H      -1.41610000       0.27800000       2.71390000        1 
H      -1.62090000      -1.23580000       1.75800000        1 
H      -2.85510000       1.30690000      -1.27080000        1 
H      -3.46040000      -0.26340000      -0.60450000        1 
H      -2.83740000      -0.18500000      -2.28640000        1 
H       1.44290000      -0.35020000       2.11690000        1 
H       2.07500000       1.12860000       1.28720000        1 
H      -0.40040000       1.27610000      -1.79100000        1 
