28
Properties=species:S:1:pos:R:3:Z:I:1 pbc="F F F"
O       1.46850000      -1.98740000       1.37480000        8 
C       2.03100000       0.30480000       0.87930000        6 
C       2.90970000       0.01020000      -0.34270000        6 
C      -2.74610000       0.69480000      -0.08190000        6 
C      -2.44730000      -0.74320000      -0.51370000        6 
C       0.92440000      -0.73830000       1.04720000        6 
C      -4.22890000       0.88030000       0.22660000        6 
C       3.97380000       1.08820000      -0.52740000        6 
C      -0.96230000      -0.91870000      -0.80070000        6 
H      -2.15490000       0.94290000       0.82670000        1 
H      -2.45710000       1.39800000      -0.89340000        1 
H       3.41590000      -0.97120000      -0.21670000        1 
H       2.27940000      -0.03250000      -1.25750000        1 
H       2.65650000       0.32720000       1.79860000        1 
H       1.55620000       1.30290000       0.75780000        1 
H      -2.73830000      -1.44500000       0.29770000        1 
H      -3.02760000      -0.99450000      -1.42820000        1 
H       0.21330000      -0.81060000      -0.02410000        1 
H       0.25510000      -0.41960000       1.87410000        1 
H      -4.41580000       1.93040000       0.53530000        1 
H      -4.53840000       0.20650000       1.05390000        1 
H      -4.84090000       0.66060000      -0.67420000        1 
H       3.49660000       2.07870000      -0.68620000        1 
H       4.63260000       1.13700000       0.36580000        1 
H       4.59630000       0.84800000      -1.41500000        1 
H      -0.65370000      -0.27990000      -1.65550000        1 
H      -0.74600000      -1.98040000      -1.04370000        1 
H       1.54790000      -2.48920000       0.52300000        1 
