10
Properties=species:S:1:pos:R:3:Z:I:1 pbc="F F F"
O      -2.43730000       0.20340000      -0.93230000        8 
O       2.39080000       1.25220000      -0.08730000        8 
C      -0.58130000      -0.52040000       0.33410000        6 
C      -1.60790000       0.48180000      -0.08130000        6 
C       1.95680000       0.12180000      -0.23230000        6 
H      -0.69710000      -1.46780000      -0.23450000        1 
H      -0.68190000      -0.72800000       1.41960000        1 
H      -1.61550000       1.46520000       0.37630000        1 
H       0.64400000      -0.12000000      -0.07120000        1 
H       2.62950000      -0.68830000      -0.49120000        1 
