25
Properties=species:S:1:pos:R:3:Z:I:1 pbc="F F F"
C       1.47040000       0.55700000      -0.92660000        6 
C       2.98400000       0.78190000      -1.05870000        6 
C      -2.31270000      -0.88110000       0.95320000        6 
C       0.91390000       1.05500000       0.40560000        6 
C       3.79750000      -0.12860000      -0.13950000        6 
C      -3.14220000      -1.19280000      -0.25990000        6 
C      -1.60890000       0.45410000       0.76960000        6 
C      -4.46610000      -1.35870000      -0.18830000        6 
H       1.23020000      -0.52130000      -1.04930000        1 
H       0.95910000       1.11040000      -1.74320000        1 
H       3.27980000       0.57070000      -2.10920000        1 
H       3.23310000       1.84440000      -0.84650000        1 
H      -2.93290000      -0.84450000       1.87570000        1 
H      -1.55040000      -1.67880000       1.07740000        1 
H      -0.41040000       0.94880000       0.39110000        1 
H       1.30200000       0.44450000       1.24710000        1 
H       1.18190000       2.12110000       0.56550000        1 
H       4.87900000       0.00160000      -0.35450000        1 
H       3.52920000      -1.19290000      -0.31010000        1 
H       3.62300000       0.13110000       0.92520000        1 
H      -2.64860000      -1.29050000      -1.22270000        1 
H      -0.93140000       0.64710000       1.62790000        1 
H      -2.35220000       1.27710000       0.69970000        1 
H      -5.03290000      -1.58530000      -1.08560000        1 
H      -4.99450000      -1.27010000       0.75600000        1 
