15
Properties=species:S:1:pos:R:3:Z:I:1 pbc="F F F"
O      -1.68430000       0.22130000       0.72750000        8 
O       1.94040000      -1.76880000       0.92360000        8 
C       2.92620000       0.15860000      -0.00510000        6 
C      -2.91750000       0.46250000       0.08980000        6 
C       1.76210000      -0.66710000       0.43020000        6 
C      -0.75820000      -0.23930000      -0.22880000        6 
H       3.58500000       0.36710000       0.86370000        1 
H       3.50170000      -0.38420000      -0.78400000        1 
H       2.56260000       1.11920000      -0.42480000        1 
H      -2.82150000       1.25260000      -0.68830000        1 
H      -3.33220000      -0.47080000      -0.35270000        1 
H      -3.64230000       0.82480000       0.84750000        1 
H       0.48820000      -0.18810000       0.27630000        1 
H      -0.54700000       0.52740000      -1.00710000        1 
H      -1.06330000      -1.21520000      -0.66780000        1 
