21
Properties=species:S:1:pos:R:3:Z:I:1 pbc="F F F"
C      -2.50740000       1.08620000       1.37570000        6 
C      -1.84060000       0.17150000       0.39030000        6 
C       2.37030000      -0.89860000      -1.20960000        6 
C       2.84650000       0.36140000      -0.60440000        6 
C      -0.64330000      -0.62340000       0.81480000        6 
C      -2.31160000       0.06610000      -0.85890000        6 
C       1.18000000      -1.44630000      -0.96310000        6 
C       2.38060000       0.86950000       0.53680000        6 
H      -3.56420000       0.77720000       1.52160000        1 
H      -2.48030000       2.13050000       0.99880000        1 
H      -1.98980000       1.05100000       2.35790000        1 
H       3.01360000      -1.37840000      -1.93650000        1 
H       3.66430000       0.87350000      -1.09570000        1 
H      -0.84970000      -1.71080000       0.72380000        1 
H       0.23940000      -0.35090000       0.19850000        1 
H      -1.83520000      -0.59340000      -1.57850000        1 
H      -3.17870000       0.63820000      -1.17560000        1 
H       0.18700000      -0.82400000      -0.07530000        1 
H       0.90220000      -2.36490000      -1.46360000        1 
H       1.61690000       0.37620000       1.11950000        1 
H       2.79990000       1.78930000       0.92350000        1 
