10
Properties=species:S:1:pos:R:3:Z:I:1 pbc="F F F"
O       2.10790000       0.61350000       0.10700000        8 
C      -1.54240000       0.09610000      -0.02090000        6 
C       1.11780000      -0.34270000      -0.11590000        6 
H      -0.16210000      -0.20410000      -0.12830000        1 
H      -1.72060000       1.14000000      -0.35130000        1 
H      -2.12290000      -0.59890000      -0.66180000        1 
H      -1.86450000      -0.01780000       1.03460000        1 
H       1.10080000      -0.61290000      -1.19190000        1 
H       1.33290000      -1.24950000       0.48730000        1 
H       1.75300000       1.17610000       0.84120000        1 
