24
Properties=species:S:1:pos:R:3:Z:I:1 pbc="F F F"
O      -0.63350000       1.22820000      -0.77290000        8 
O       1.61920000       0.56340000       1.95860000        8 
C      -0.77810000      -0.13360000      -0.47040000        6 
C      -1.68980000      -0.30750000       0.75700000        6 
C      -1.29500000      -0.89340000      -1.69580000        6 
C      -3.08400000       0.29760000       0.57800000        6 
C       3.43920000       1.09130000       0.56520000        6 
C       2.22890000       0.28730000       0.93780000        6 
C       1.74530000      -0.84490000       0.08380000        6 
H       0.39860000      -0.63560000      -0.15240000        1 
H      -1.78900000      -1.38840000       0.99640000        1 
H      -1.20240000       0.18120000       1.62810000        1 
H      -3.01500000       1.37200000       0.30670000        1 
H      -3.65150000      -0.24730000      -0.20460000        1 
H      -3.64610000       0.21300000       1.53190000        1 
H      -1.48650000      -1.95660000      -1.43850000        1 
H      -0.53020000      -0.86150000      -2.50000000        1 
H      -2.22760000      -0.43310000      -2.08390000        1 
H       4.19750000       1.01580000       1.37250000        1 
H       3.89200000       0.72800000      -0.38100000        1 
H       3.15210000       2.15590000       0.43580000        1 
H       2.34810000      -0.95090000      -0.84220000        1 
H       1.78610000      -1.79390000       0.65850000        1 
H       0.22170000       1.31290000      -1.26860000        1 
