15
Properties=species:S:1:pos:R:3:Z:I:1 pbc="F F F"
O      -1.23270000       0.52280000      -0.54320000        8 
O       2.73110000       1.05520000       1.30350000        8 
C      -0.73980000      -0.38350000       0.41730000        6 
C      -2.63860000       0.57240000      -0.45420000        6 
C       1.84560000      -0.52110000      -0.19750000        6 
C       2.93780000       0.33920000       0.33820000        6 
H       0.57940000      -0.42070000       0.32360000        1 
H      -1.11890000      -1.41340000       0.23230000        1 
H      -0.99400000      -0.05500000       1.44990000        1 
H      -3.01580000       1.28770000      -1.21360000        1 
H      -2.96710000       0.93820000       0.54430000        1 
H      -3.09200000      -0.42020000      -0.67330000        1 
H       2.15120000      -1.58660000      -0.14660000        1 
H       1.63660000      -0.24510000      -1.25180000        1 
H       3.91700000       0.33010000      -0.12880000        1 
