18
Properties=species:S:1:pos:R:3:Z:I:1 pbc="F F F"
O      -1.48870000       1.88220000      -0.33550000        8 
C      -2.68400000       0.29140000       0.91870000        6 
C       1.32080000      -1.03600000       0.14740000        6 
C      -1.70660000       0.69640000      -0.14460000        6 
C       2.51540000      -0.27720000      -0.33850000        6 
C      -0.98540000      -0.32000000      -0.97630000        6 
C       2.66860000       1.01820000      -0.05690000        6 
H      -2.78400000      -0.81260000       0.97840000        1 
H      -3.68020000       0.72540000       0.69140000        1 
H      -2.33940000       0.67060000       1.90350000        1 
H       0.23630000      -0.49290000      -0.31750000        1 
H       1.37660000      -2.08780000      -0.20310000        1 
H       1.29180000      -1.02750000       1.25750000        1 
H       3.26770000      -0.78850000      -0.93180000        1 
H      -1.22550000      -1.35710000      -0.66150000        1 
H      -1.25350000      -0.19010000      -2.04570000        1 
H       1.92960000       1.55220000       0.53320000        1 
H       3.54060000       1.55330000      -0.41870000        1 
