17
Properties=species:S:1:pos:R:3:Z:I:1 pbc="F F F"
O      -1.65460000       0.55190000       2.40540000        8 
C      -2.85710000       0.96270000       0.41850000        6 
C      -1.87220000       0.20430000       1.25540000        6 
C       2.00440000       0.28480000      -0.50690000        6 
C      -1.14390000      -0.97680000       0.69500000        6 
C       1.32720000      -0.83710000      -0.29510000        6 
C       3.28530000       0.26170000      -1.16010000        6 
C       4.35920000       0.24340000      -1.70770000        6 
H      -2.34700000       1.37290000      -0.47810000        1 
H      -3.29800000       1.80330000       0.99590000        1 
H      -3.67340000       0.28290000       0.09590000        1 
H       1.58900000       1.23000000      -0.18460000        1 
H      -1.39510000      -1.88600000       1.28040000        1 
H      -1.40930000      -1.14240000      -0.37070000        1 
H       0.06360000      -0.78540000       0.35270000        1 
H       1.72000000      -1.79740000      -0.60770000        1 
H       5.30190000       0.22730000      -2.18840000        1 
