21
Properties=species:S:1:pos:R:3:Z:I:1 pbc="F F F"
C      -1.52460000       0.33730000      -0.40740000        6 
C      -0.84730000      -0.78740000       0.37980000        6 
C      -2.23320000       1.31400000       0.52660000        6 
C       2.11470000      -0.35200000      -0.58480000        6 
C       2.22560000       0.83980000       0.34920000        6 
C      -0.12940000      -1.74380000      -0.56250000        6 
H      -2.27090000      -0.09340000      -1.11040000        1 
H      -0.76270000       0.89150000      -0.99820000        1 
H      -1.60530000      -1.35250000       0.96500000        1 
H      -0.10300000      -0.35530000       1.08330000        1 
H      -2.71500000       2.11640000      -0.07080000        1 
H      -1.50410000       1.77930000       1.22370000        1 
H      -3.01700000       0.78790000       1.11240000        1 
H       0.89030000      -0.86270000      -0.51120000        1 
H       2.31460000      -0.03250000      -1.62930000        1 
H       2.85240000      -1.12920000      -0.29360000        1 
H       2.02280000       0.51800000       1.39200000        1 
H       1.48540000       1.61390000       0.05730000        1 
H       3.24730000       1.27080000       0.29160000        1 
H       0.41650000      -2.51390000       0.02230000        1 
H      -0.85720000      -2.24620000      -1.23490000        1 
