22
Properties=species:S:1:pos:R:3:Z:I:1 pbc="F F F"
C       2.33960000      -0.60400000       0.39060000        6 
C       1.75540000      -0.07160000      -0.91240000        6 
C       2.24580000       0.43720000       1.50070000        6 
C      -3.18520000       0.53040000      -0.08910000        6 
C      -1.86030000      -0.13170000      -0.34110000        6 
C      -0.78080000       0.60190000      -1.07450000        6 
C      -1.63630000      -1.37880000       0.08710000        6 
H       3.40470000      -0.87890000       0.23180000        1 
H       1.78110000      -1.51500000       0.69470000        1 
H       0.40360000       0.26900000      -0.72860000        1 
H       2.31810000       0.82460000      -1.25080000        1 
H       1.82360000      -0.85310000      -1.69830000        1 
H       1.18480000       0.70790000       1.68770000        1 
H       2.67640000       0.02210000       2.43630000        1 
H       2.81440000       1.35020000       1.22270000        1 
H      -3.99720000      -0.05770000      -0.56670000        1 
H      -3.19820000       1.55810000      -0.51020000        1 
H      -3.37310000       0.59360000       1.00360000        1 
H      -1.12780000       0.86810000      -2.09480000        1 
H      -0.50150000       1.52160000      -0.51910000        1 
H      -2.40560000      -1.92910000       0.62110000        1 
H      -0.68140000      -1.86480000      -0.09090000        1 
