26
Properties=species:S:1:pos:R:3:Z:I:1 pbc="F F F"
O      -0.13860000      -1.62010000      -1.35360000        8 
C      -1.87290000      -0.28650000      -0.36930000        6 
C      -2.92100000      -0.23500000       0.74800000        6 
C      -1.07270000      -1.58830000      -0.31360000        6 
C      -3.72030000       1.06360000       0.69440000        6 
C       3.09830000       1.43880000       0.62890000        6 
C       2.92760000       0.18420000      -0.18450000        6 
C       1.73060000      -0.00200000      -1.07280000        6 
C       3.84590000      -0.78690000      -0.11010000        6 
H      -3.62130000      -1.09260000       0.64530000        1 
H      -2.41830000      -0.30720000       1.73720000        1 
H      -1.17670000       0.57450000      -0.26470000        1 
H      -2.37840000      -0.21340000      -1.35740000        1 
H      -1.75780000      -2.45560000      -0.42520000        1 
H      -0.54750000      -1.67750000       0.66260000        1 
H      -3.04600000       1.93740000       0.82060000        1 
H      -4.25370000       1.14870000      -0.27640000        1 
H      -4.47010000       1.07270000       1.51330000        1 
H       3.12930000       1.18460000       1.70960000        1 
H       2.26190000       2.14850000       0.45930000        1 
H       4.04680000       1.94290000       0.34660000        1 
H       2.05140000      -0.07200000      -2.13360000        1 
H       1.00130000       0.82790000      -0.96570000        1 
H       4.71840000      -0.67940000       0.52780000        1 
H       3.73660000      -1.70130000      -0.68600000        1 
H       0.84740000      -0.80600000      -0.98040000        1 
