27
Properties=species:S:1:pos:R:3:Z:I:1 pbc="F F F"
C      -2.62030000      -0.16570000      -0.25260000        6 
C       3.05810000      -0.48450000       0.20090000        6 
C       2.17630000       0.55070000      -0.50200000        6 
C      -1.35750000      -0.79750000       0.33930000        6 
C      -3.87480000      -0.73080000       0.42220000        6 
C      -2.57230000       1.35910000      -0.11380000        6 
C       4.36960000       0.13760000       0.67130000        6 
C       0.86420000      -0.07870000      -0.94980000        6 
H      -2.66040000      -0.41730000      -1.33510000        1 
H       3.28640000      -1.31920000      -0.49760000        1 
H       2.51930000      -0.89880000       1.08110000        1 
H       1.95050000       1.38520000       0.19670000        1 
H       2.70520000       0.96160000      -1.38960000        1 
H       4.93870000       0.53880000      -0.19440000        1 
H       4.17050000       0.95910000       1.39220000        1 
H       4.98770000      -0.63490000       1.17530000        1 
H      -0.28220000      -0.32160000      -0.27920000        1 
H      -1.27690000      -0.57350000       1.42500000        1 
H      -1.37860000      -1.89950000       0.19990000        1 
H      -4.78650000      -0.29200000      -0.03660000        1 
H      -3.91750000      -1.83290000       0.28870000        1 
H      -3.87360000      -0.50060000       1.50950000        1 
H      -2.52870000       1.65520000       0.95660000        1 
H      -3.47490000       1.81370000      -0.57520000        1 
H      -1.67810000       1.76310000      -0.63470000        1 
H       1.05160000      -0.87270000      -1.70380000        1 
H       0.20420000       0.69590000      -1.39410000        1 
