22
Properties=species:S:1:pos:R:3:Z:I:1 pbc="F F F"
C      -1.01470000      -0.07860000       0.03080000        6 
C      -1.60560000       0.57670000       1.28250000        6 
C      -1.28870000       0.77770000      -1.20900000        6 
C      -1.57230000      -1.49280000      -0.15420000        6 
C       2.54130000       0.47980000       0.24700000        6 
C       1.50700000      -0.51260000       0.67170000        6 
C       3.04160000       0.45860000      -0.98930000        6 
H       0.32220000      -0.17000000       0.19350000        1 
H      -2.70920000       0.67300000       1.19290000        1 
H      -1.36830000      -0.03370000       2.17940000        1 
H      -1.16590000       1.58640000       1.42670000        1 
H      -2.38160000       0.88070000      -1.38280000        1 
H      -0.84720000       1.78840000      -1.07830000        1 
H      -0.82350000       0.31170000      -2.10340000        1 
H      -1.10860000      -1.97120000      -1.04290000        1 
H      -2.67470000      -1.46650000      -0.29240000        1 
H      -1.33480000      -2.11460000       0.73490000        1 
H       2.87990000       1.23500000       0.95020000        1 
H       1.92720000      -1.53980000       0.63210000        1 
H       1.17500000      -0.29420000       1.70820000        1 
H       2.71340000      -0.28290000      -1.71170000        1 
H       3.78740000       1.18900000      -1.28590000        1 
