20
Properties=species:S:1:pos:R:3:Z:I:1 pbc="F F F"
O       2.82140000       1.26900000       1.48830000        8 
C      -0.68390000       0.04340000      -0.10190000        6 
C      -0.86960000      -1.31770000      -0.77920000        6 
C      -1.30600000       1.15810000      -0.94820000        6 
C      -1.28590000       0.03340000       1.30640000        6 
C       1.91340000       0.01290000      -0.28160000        6 
C       2.72610000       0.17410000       0.95900000        6 
H       0.59160000       0.27530000       0.00240000        1 
H      -1.94900000      -1.55830000      -0.88970000        1 
H      -0.38290000      -2.11290000      -0.17560000        1 
H      -0.39730000      -1.31030000      -1.78440000        1 
H      -2.40000000       1.00020000      -1.06420000        1 
H      -0.83620000       1.17950000      -1.95440000        1 
H      -1.13320000       2.14360000      -0.46610000        1 
H      -0.80150000      -0.75410000       1.92180000        1 
H      -2.37920000      -0.16210000       1.26570000        1 
H      -1.11290000       1.01260000       1.80130000        1 
H       2.33440000       0.64380000      -1.09220000        1 
H       1.91940000      -1.04950000      -0.60350000        1 
H       3.23130000      -0.68110000       1.39610000        1 
