17
Properties=species:S:1:pos:R:3:Z:I:1 pbc="F F F"
O       2.42300000      -0.61530000      -0.82200000        8 
O       1.27510000      -0.08200000      -1.19570000        8 
C      -1.94230000      -0.57150000       0.12020000        6 
C      -2.26120000       0.89580000      -0.13950000        6 
C       3.04370000       0.34180000      -0.00720000        6 
C      -0.46600000      -0.75370000       0.44380000        6 
H      -2.19150000      -1.16500000      -0.78530000        1 
H      -2.55720000      -0.94210000       0.96860000        1 
H      -1.65790000       1.27570000      -0.99170000        1 
H      -3.33770000       1.00360000      -0.38930000        1 
H      -2.04360000       1.50400000       0.76440000        1 
H       4.02230000      -0.05540000       0.33230000        1 
H       2.42290000       0.55340000       0.89130000        1 
H       3.22660000       1.28050000      -0.57540000        1 
H      -0.20600000      -0.22200000       1.38400000        1 
H      -0.23420000      -1.83320000       0.56070000        1 
H       0.48400000      -0.61460000      -0.55910000        1 
