16
Properties=species:S:1:pos:R:3:Z:I:1 pbc="F F F"
C      -0.69860000      -0.66510000       0.58660000        6 
C       2.91380000       0.50470000       0.17670000        6 
C      -2.05030000      -0.72210000      -0.06980000        6 
C       0.34740000      -0.05530000      -0.33930000        6 
C      -2.75400000       0.38370000      -0.33100000        6 
H      -0.37840000      -1.69610000       0.84690000        1 
H      -0.75690000      -0.07510000       1.52630000        1 
H       1.61650000       0.26640000      -0.16850000        1 
H       3.47410000      -0.45270000       0.19250000        1 
H       3.37370000       1.19010000      -0.56440000        1 
H       2.94910000       0.97040000       1.18300000        1 
H      -2.47650000      -1.69050000      -0.31500000        1 
H       0.11060000       1.00590000      -0.56580000        1 
H       0.42680000      -0.63820000      -1.28180000        1 
H      -2.36550000       1.36620000      -0.08090000        1 
H      -3.73180000       0.30770000      -0.79540000        1 
