21
Properties=species:S:1:pos:R:3:Z:I:1 pbc="F F F"
O      -0.26840000       0.68360000      -0.99830000        8 
O       3.24640000      -1.40620000      -0.03350000        8 
C      -1.04220000       0.06920000      -0.00040000        6 
C      -2.52100000       0.35990000      -0.29230000        6 
C      -0.80080000      -1.44950000      -0.02310000        6 
C      -0.66440000       0.64730000       1.37370000        6 
C       2.17370000       0.46310000      -0.97660000        6 
C       3.13740000      -0.19130000      -0.04460000        6 
H      -2.70600000       1.45570000      -0.29390000        1 
H      -3.17470000      -0.10880000       0.47500000        1 
H      -2.80330000      -0.03980000      -1.29020000        1 
H      -1.43750000      -1.95900000       0.73220000        1 
H      -1.04060000      -1.86260000      -1.02650000        1 
H       0.26210000      -1.68090000       0.20280000        1 
H       0.39950000       0.43220000       1.61050000        1 
H      -0.80560000       1.74950000       1.37980000        1 
H      -1.29680000       0.20380000       2.17300000        1 
H       2.44770000       0.22950000      -2.02670000        1 
H       2.19120000       1.56320000      -0.82920000        1 
H       3.74080000       0.40970000       0.62790000        1 
H       0.96250000       0.43110000      -0.73940000        1 
