20
Properties=species:S:1:pos:R:3:Z:I:1 pbc="F F F"
C      -2.01590000      -0.33990000       1.65620000        6 
C       1.52290000      -0.67870000      -1.00460000        6 
C      -1.45500000      -0.15090000       0.27380000        6 
C       2.03010000       0.37840000      -0.07040000        6 
C      -1.02950000      -1.34990000      -0.51410000        6 
C      -1.32940000       1.06820000      -0.26460000        6 
C       2.35180000       1.60360000      -0.49450000        6 
H      -2.29090000       0.62800000       2.12790000        1 
H      -2.92390000      -0.97630000       1.60360000        1 
H      -1.26070000      -0.84150000       2.29690000        1 
H       0.29750000      -1.07230000      -0.60300000        1 
H       2.20840000      -1.55090000      -0.97710000        1 
H       1.45530000      -0.30960000      -2.05070000        1 
H       2.13580000       0.13570000       0.98240000        1 
H      -1.89460000      -2.02670000      -0.67460000        1 
H      -0.22230000      -1.89110000       0.02240000        1 
H      -0.92300000       1.19360000      -1.26400000        1 
H      -1.62940000       1.95680000       0.28250000        1 
H       2.71510000       2.34300000       0.21180000        1 
H       2.25770000       1.88060000      -1.54010000        1 
