13
Properties=species:S:1:pos:R:3:Z:I:1 pbc="F F F"
O       2.81020000       0.62150000       0.00260000        8 
C      -0.75840000      -0.59550000       0.23590000        6 
C      -1.55990000       0.68580000       0.04050000        6 
C       0.59470000      -0.49600000      -0.45450000        6 
H      -1.32500000      -1.45660000      -0.17930000        1 
H      -0.60010000      -0.76480000       1.32250000        1 
H      -1.75220000       0.85990000      -1.03980000        1 
H      -2.53460000       0.59810000       0.56500000        1 
H      -1.00660000       1.55340000       0.45940000        1 
H       1.19490000      -1.40630000      -0.24470000        1 
H       0.46360000      -0.39190000      -1.55280000        1 
H       1.48450000       0.22330000      -0.13000000        1 
H       2.98890000       0.56910000       0.97520000        1 
