26
Properties=species:S:1:pos:R:3:Z:I:1 pbc="F F F"
O      -3.42580000       0.78700000      -0.93010000        8 
C      -2.41580000      -0.12800000      -0.58880000        6 
C      -1.14060000       0.62080000      -0.16740000        6 
C       2.31480000      -1.01990000       0.66660000        6 
C      -2.91560000      -1.00680000       0.55620000        6 
C      -0.52460000       1.40190000      -1.32550000        6 
C       2.84570000       0.37300000       0.47790000        6 
C       0.79560000      -1.03670000       0.57570000        6 
C       4.15770000       0.61700000       0.52020000        6 
H      -2.18350000      -0.79830000      -1.45050000        1 
H      -0.25900000      -0.23550000       0.25610000        1 
H      -1.37030000       1.32280000       0.66400000        1 
H       2.62660000      -1.40830000       1.66030000        1 
H       2.72930000      -1.68130000      -0.12420000        1 
H      -1.21270000       2.20410000      -1.66570000        1 
H       0.42340000       1.87120000      -0.98890000        1 
H      -0.30070000       0.72100000      -2.17380000        1 
H      -2.14680000      -1.76090000       0.82930000        1 
H      -3.83610000      -1.54370000       0.24290000        1 
H      -3.15090000      -0.38760000       1.44850000        1 
H       2.16320000       1.20090000       0.30350000        1 
H       0.42320000      -2.08040000       0.64570000        1 
H       0.35130000      -0.43610000       1.39810000        1 
H       4.86930000      -0.18510000       0.69200000        1 
H       4.52710000       1.62800000       0.38200000        1 
H      -3.34490000       0.96090000      -1.90410000        1 
