23
Properties=species:S:1:pos:R:3:Z:I:1 pbc="F F F"
O      -3.45520000      -0.86840000      -0.85650000        8 
C      -2.53640000      -0.01080000      -0.23100000        6 
C      -1.10310000      -0.51020000      -0.50320000        6 
C      -2.75760000       1.40760000      -0.76220000        6 
C      -0.04900000       0.23110000       0.31690000        6 
C       3.37960000      -0.69130000       0.82170000        6 
C       2.32210000      -0.92740000      -0.20830000        6 
C       3.64020000       0.54000000       1.26360000        6 
H      -2.72600000      -0.00190000       0.86830000        1 
H      -1.04070000      -1.58770000      -0.23790000        1 
H      -0.86190000      -0.41670000      -1.58420000        1 
H       1.19780000      -0.39180000       0.13140000        1 
H      -0.30270000       0.20010000       1.39790000        1 
H       0.03870000       1.28640000      -0.01480000        1 
H      -2.13820000       2.13890000      -0.20290000        1 
H      -2.50730000       1.46380000      -1.84330000        1 
H      -3.82270000       1.69390000      -0.63040000        1 
H       3.93340000      -1.53440000       1.22400000        1 
H       2.59400000      -0.41670000      -1.15610000        1 
H       2.21430000      -2.01570000      -0.39840000        1 
H       3.09470000       1.39760000       0.88080000        1 
H       4.40640000       0.69610000       2.01600000        1 
H      -3.52050000      -1.68250000      -0.29150000        1 
