28
Properties=species:S:1:pos:R:3:Z:I:1 pbc="F F F"
O      -1.29970000       1.78490000       0.46840000        8 
C      -2.27350000      -0.34100000      -0.19040000        6 
C       2.30250000       0.24220000      -0.05470000        6 
C      -1.09230000       0.63740000      -0.31060000        6 
C      -2.41710000      -0.86990000       1.24150000        6 
C      -3.58180000       0.30170000      -0.66730000        6 
C       2.68440000       0.36420000      -1.53170000        6 
C       3.51200000      -0.17180000       0.78940000        6 
C       1.15840000      -0.75760000       0.11090000        6 
H      -2.05880000      -1.20880000      -0.85220000        1 
H       1.94860000       1.23570000       0.29780000        1 
H      -0.00070000       0.04720000       0.03370000        1 
H      -0.97610000       0.94560000      -1.37160000        1 
H       3.48300000       1.12610000      -1.65830000        1 
H       3.05080000      -0.60860000      -1.92500000        1 
H       1.80280000       0.68330000      -2.12800000        1 
H       3.89740000      -1.16260000       0.46500000        1 
H       3.22730000      -0.23100000       1.86170000        1 
H       4.32390000       0.57970000       0.68790000        1 
H      -2.67960000      -0.04950000       1.94320000        1 
H      -3.21570000      -1.64110000       1.28370000        1 
H      -1.46670000      -1.33870000       1.57450000        1 
H      -3.47390000       0.65880000      -1.71370000        1 
H      -4.40490000      -0.44400000      -0.64010000        1 
H      -3.85910000       1.16170000      -0.02070000        1 
H       1.46920000      -1.77890000      -0.19860000        1 
H       0.80300000      -0.77690000       1.16320000        1 
H      -0.86320000       1.61180000       1.34200000        1 
