16
Properties=species:S:1:pos:R:3:Z:I:1 pbc="F F F"
O      -2.79090000       1.20610000      -1.04040000        8 
C      -2.04930000      -0.09310000       0.77830000        6 
C       1.66470000      -0.72250000      -0.48580000        6 
C      -1.86370000       0.58820000      -0.54080000        6 
C      -0.55090000       0.51730000      -1.25080000        6 
C       2.29650000      -0.29690000       0.76330000        6 
C       2.81680000       0.05400000       1.79240000        6 
H      -2.32050000       0.65720000       1.55030000        1 
H      -1.11560000      -0.60720000       1.09090000        1 
H      -2.86230000      -0.84470000       0.69840000        1 
H       0.48560000      -0.11920000      -0.61420000        1 
H       2.31520000      -0.44850000      -1.34180000        1 
H       1.51770000      -1.82210000      -0.47040000        1 
H      -0.13660000       1.53840000      -1.38520000        1 
H      -0.68040000       0.03100000      -2.24030000        1 
H       3.27360000       0.36210000       2.69600000        1 
