24
Properties=species:S:1:pos:R:3:Z:I:1 pbc="F F F"
O      -2.78000000      -1.60300000      -0.21640000        8 
O       3.12270000      -1.32210000      -1.14220000        8 
C      -1.70800000      -0.76750000       0.13950000        6 
C      -2.03390000       0.69460000      -0.20980000        6 
C      -0.45920000      -1.22450000      -0.61040000        6 
C      -3.19710000       1.23600000       0.61930000        6 
C       4.26490000       0.48580000      -0.14320000        6 
C       3.05270000      -0.35550000      -0.40010000        6 
C       1.75000000      -0.01990000       0.24800000        6 
H      -1.49020000      -0.84830000       1.23110000        1 
H      -1.14250000       1.33040000      -0.01480000        1 
H      -2.28810000       0.77770000      -1.28930000        1 
H      -3.35710000       2.30780000       0.37720000        1 
H      -4.13150000       0.68220000       0.38860000        1 
H      -2.97370000       1.14740000       1.70380000        1 
H       0.59980000      -0.45020000      -0.26470000        1 
H      -0.61710000      -1.15780000      -1.70840000        1 
H      -0.22600000      -2.27800000      -0.34640000        1 
H       4.50090000       0.47870000       0.94150000        1 
H       5.14050000       0.09340000      -0.70320000        1 
H       4.07040000       1.52940000      -0.46770000        1 
H       1.85380000      -0.06030000       1.35250000        1 
H       1.42170000       0.99420000      -0.06190000        1 
H      -3.37300000      -1.67040000       0.57690000        1 
