26
Properties=species:S:1:pos:R:3:Z:I:1 pbc="F F F"
O      -1.06640000      -0.29800000      -1.26430000        8 
C      -1.72850000      -0.17100000      -0.03220000        6 
C       2.57880000      -0.38570000      -0.98940000        6 
C      -3.22580000      -0.41810000      -0.26420000        6 
C      -1.18140000      -1.21350000       0.95750000        6 
C      -1.52020000       1.24870000       0.52170000        6 
C       2.73570000      -0.30890000       0.50280000        6 
C       1.28890000       0.28910000      -1.43750000        6 
C       2.98860000       0.84590000       1.12640000        6 
H       2.54040000      -1.45420000      -1.29070000        1 
H       3.45120000       0.08640000      -1.49090000        1 
H      -3.63090000       0.31990000      -0.98970000        1 
H      -3.79330000      -0.32780000       0.68740000        1 
H      -3.38930000      -1.43610000      -0.67890000        1 
H      -0.10110000      -1.04090000       1.15120000        1 
H      -1.72350000      -1.15700000       1.92620000        1 
H      -1.30060000      -2.23770000       0.54310000        1 
H      -2.07290000       1.38200000       1.47680000        1 
H      -1.88420000       2.00390000      -0.20770000        1 
H      -0.44260000       1.44090000       0.71200000        1 
H       2.66870000      -1.22170000       1.08750000        1 
H       1.13570000       0.12740000      -2.52530000        1 
H       1.32670000       1.38100000      -1.23760000        1 
H       3.10900000       0.86540000       2.20460000        1 
H       3.08220000       1.77360000       0.57000000        1 
H       0.15460000      -0.09350000      -1.05860000        1 
