23
Properties=species:S:1:pos:R:3:Z:I:1 pbc="F F F"
O      -2.44440000       2.34170000       1.25840000        8 
C      -1.80680000       0.14770000       0.50480000        6 
C      -1.10830000      -0.62280000      -0.61920000        6 
C      -1.77620000       1.65370000       0.23620000        6 
C      -1.12010000      -2.12360000      -0.35060000        6 
C       2.57750000      -0.19570000       0.33700000        6 
C       1.48260000       0.09960000      -0.63750000        6 
C       3.84070000       0.15490000       0.08650000        6 
H       0.19960000      -0.20250000      -0.71990000        1 
H      -1.62020000      -0.42490000      -1.58630000        1 
H      -2.86440000      -0.18690000       0.58580000        1 
H      -1.29380000      -0.06040000       1.46910000        1 
H      -2.28890000       1.86960000      -0.72550000        1 
H      -0.72440000       2.01190000       0.15420000        1 
H      -0.60440000      -2.65070000      -1.18040000        1 
H      -0.58710000      -2.34790000       0.59750000        1 
H      -2.16440000      -2.49670000      -0.28440000        1 
H       2.33390000      -0.70510000       1.26380000        1 
H       1.39430000       1.19500000      -0.79720000        1 
H       1.67970000      -0.40990000      -1.60430000        1 
H       4.10580000       0.66530000      -0.83470000        1 
H       4.61990000      -0.06920000       0.80780000        1 
H      -1.83080000       2.35690000       2.03890000        1 
