19
Properties=species:S:1:pos:R:3:Z:I:1 pbc="F F F"
C      -1.37000000       0.04200000      -0.09350000        6 
C      -1.37160000       1.29630000       0.78480000        6 
C      -1.01390000      -1.19450000       0.73660000        6 
C      -0.37860000       0.20670000      -1.24490000        6 
C       1.90940000      -0.54670000      -0.19060000        6 
C       3.00640000       0.18390000      -0.36990000        6 
H      -2.38890000      -0.09610000      -0.51790000        1 
H      -2.10300000       1.18270000       1.61340000        1 
H      -0.36300000       1.47390000       1.21690000        1 
H      -1.66620000       2.18360000       0.18460000        1 
H       0.00620000      -1.09740000       1.16710000        1 
H      -1.74320000      -1.32270000       1.56490000        1 
H      -1.05020000      -2.10540000       0.10160000        1 
H      -0.64120000       1.09250000      -1.86180000        1 
H      -0.38480000      -0.69320000      -1.89640000        1 
H       0.66130000      -0.02110000      -0.51640000        1 
H       1.98070000      -1.55300000       0.20930000        1 
H       2.92920000       1.18910000      -0.76990000        1 
H       3.98130000      -0.22060000      -0.11780000        1 
