28
Properties=species:S:1:pos:R:3:Z:I:1 pbc="F F F"
O      -1.60450000       1.20600000      -0.52170000        8 
C      -2.18920000       0.14050000       0.18220000        6 
C       3.11460000       0.29400000      -0.55640000        6 
C       1.65010000      -0.02780000      -0.24040000        6 
C      -1.31900000      -0.21260000       1.40020000        6 
C      -3.58070000       0.58390000       0.65530000        6 
C      -2.32470000      -1.07850000      -0.74590000        6 
C       4.05140000      -0.34840000       0.46240000        6 
C       0.71370000       0.61310000      -1.25720000        6 
H       3.26810000       1.39520000      -0.54200000        1 
H       3.37150000      -0.08450000      -1.56990000        1 
H       1.49290000      -1.12790000      -0.25600000        1 
H       1.38960000       0.35110000       0.77140000        1 
H       3.83170000       0.03260000       1.48260000        1 
H       3.93550000      -1.45320000       0.45030000        1 
H       5.10330000      -0.09900000       0.20920000        1 
H      -1.19240000       0.67700000       2.05400000        1 
H      -1.78790000      -1.02630000       1.99460000        1 
H      -0.31170000      -0.55220000       1.07700000        1 
H      -4.08430000      -0.23050000       1.21990000        1 
H      -4.21560000       0.85660000      -0.21510000        1 
H      -3.49840000       1.47420000       1.31550000        1 
H      -2.92480000      -0.81460000      -1.64310000        1 
H      -2.82500000      -1.91930000      -0.21850000        1 
H      -1.32530000      -1.42490000      -1.08620000        1 
H       0.81310000       1.71940000      -1.24200000        1 
H       0.91730000       0.22710000      -2.27870000        1 
H      -0.46940000       0.82890000      -0.90150000        1 
