5
Properties=species:S:1:pos:R:3:Z:I:1 pbc="F F F"
C      -0.46390000      -0.05050000      -0.23710000        6 
H      -0.98550000       0.92460000      -0.14770000        1 
H      -1.12290000      -0.85850000       0.14180000        1 
H       1.66960000       0.06460000       0.33990000        1 
H       0.90260000      -0.08020000      -0.09690000        1 
