25
Properties=species:S:1:pos:R:3:Z:I:1 pbc="F F F"
C       1.17710000      -0.31190000      -0.65940000        6 
C       2.68350000      -0.36240000      -0.95480000        6 
C       0.87210000      -0.16810000       0.82980000        6 
C       3.33340000      -1.66240000      -0.48220000        6 
C      -3.45080000       0.04480000      -0.15380000        6 
C      -2.35580000       0.96730000       0.30930000        6 
C      -1.54050000       0.60350000       1.51530000        6 
C      -2.08950000       2.10480000      -0.34610000        6 
H       0.74310000       0.56460000      -1.18660000        1 
H       0.67730000      -1.22290000      -1.05400000        1 
H       2.82860000      -0.27950000      -2.05370000        1 
H       3.19550000       0.50380000      -0.48190000        1 
H      -0.51190000       0.01280000       0.99930000        1 
H       1.17370000      -1.08120000       1.38340000        1 
H       1.39910000       0.71390000       1.25210000        1 
H       2.80610000      -2.53970000      -0.91360000        1 
H       3.31800000      -1.72910000       0.62540000        1 
H       4.39220000      -1.68780000      -0.81560000        1 
H      -3.97090000       0.43630000      -1.05440000        1 
H      -4.19820000      -0.07830000       0.65780000        1 
H      -3.01920000      -0.94770000      -0.40090000        1 
H      -1.82180000      -0.39820000       1.90410000        1 
H      -1.68770000       1.35900000       2.31590000        1 
H      -1.29470000       2.76490000      -0.01090000        1 
H      -2.65880000       2.39350000      -1.22450000        1 
