17
Properties=species:S:1:pos:R:3:Z:I:1 pbc="F F F"
C      -1.18620000       0.45500000       0.34340000        6 
C      -0.69470000      -0.46160000      -0.77980000        6 
C      -2.69510000       0.33200000       0.53410000        6 
C       0.81400000      -0.34240000      -0.94700000        6 
C       3.22120000      -0.14320000       0.55930000        6 
C       4.32200000      -0.10210000       1.04860000        6 
H      -0.93960000       1.51180000       0.10040000        1 
H      -0.67910000       0.18470000       1.29550000        1 
H      -1.19030000      -0.18980000      -1.73740000        1 
H      -0.94340000      -1.51720000      -0.53640000        1 
H      -2.96630000      -0.71090000       0.80430000        1 
H      -3.02260000       1.00720000       1.35250000        1 
H      -3.22660000       0.61980000      -0.39800000        1 
H       1.16850000      -1.06250000      -1.71430000        1 
H       1.09000000       0.68730000      -1.25970000        1 
H       1.63970000      -0.20220000      -0.14350000        1 
H       5.28860000      -0.06600000       1.47810000        1 
