17
Properties=species:S:1:pos:R:3:Z:I:1 pbc="F F F"
O      -1.63520000       0.86770000      -1.98480000        8 
C      -2.29630000       0.31520000      -0.87990000        6 
C      -1.52430000       0.61190000       0.39820000        6 
C       2.17500000      -1.06560000       0.60620000        6 
C       0.91440000      -0.28540000       0.77880000        6 
C       3.25600000      -0.49980000       0.06940000        6 
H      -3.33250000       0.71560000      -0.80180000        1 
H      -2.35930000      -0.78480000      -1.01520000        1 
H      -0.22040000       0.09610000       0.29340000        1 
H      -2.03350000       0.13720000       1.26320000        1 
H      -1.47220000       1.70830000       0.56780000        1 
H       2.20850000      -2.10390000       0.92200000        1 
H       0.09560000      -0.76730000       0.20530000        1 
H       0.64260000      -0.24820000       1.85410000        1 
H       4.16740000      -1.07630000      -0.05150000        1 
H       3.24170000       0.53740000      -0.25250000        1 
H      -1.82760000       1.84180000      -1.97290000        1 
