26
Properties=species:S:1:pos:R:3:Z:I:1 pbc="F F F"
O      -1.35810000      -1.26850000      -0.89850000        8 
C      -1.89420000      -0.10090000      -0.32450000        6 
C      -0.79890000       0.97210000      -0.32160000        6 
C      -3.09310000       0.38980000      -1.15710000        6 
C      -2.33180000      -0.38420000       1.12370000        6 
C       3.08370000      -1.34410000      -0.02990000        6 
C       2.69470000       0.08730000       0.22370000        6 
C       1.45690000       0.42300000       1.00600000        6 
C       3.45190000       1.07860000      -0.26190000        6 
H       0.30480000       0.52570000       0.42640000        1 
H      -0.45600000       1.17810000      -1.35840000        1 
H      -1.17230000       1.91940000       0.12450000        1 
H      -2.78330000       0.57070000      -2.20880000        1 
H      -3.90320000      -0.37080000      -1.15950000        1 
H      -3.50120000       1.33530000      -0.73880000        1 
H      -2.71880000       0.53970000       1.60540000        1 
H      -1.47320000      -0.76290000       1.71880000        1 
H      -3.13430000      -1.15250000       1.14480000        1 
H       3.10730000      -1.53890000      -1.12300000        1 
H       4.09020000      -1.54060000       0.39630000        1 
H       2.36360000      -2.04840000       0.43640000        1 
H       1.73060000       0.95770000       1.94000000        1 
H       0.86980000      -0.48330000       1.26270000        1 
H       4.34940000       0.86330000      -0.83460000        1 
H       3.18370000       2.11750000      -0.09310000        1 
H      -2.06840000      -1.96310000      -0.89930000        1 
