26
Properties=species:S:1:pos:R:3:Z:I:1 pbc="F F F"
O      -2.05410000      -2.06140000       0.25730000        8 
C      -2.24530000       0.33620000      -0.01100000        6 
C      -2.04580000      -1.02820000      -0.69040000        6 
C       2.55560000       0.04370000       0.42210000        6 
C      -1.10410000       0.63990000       0.96580000        6 
C      -3.60360000       0.41360000       0.69710000        6 
C       3.44470000      -0.28750000      -0.74490000        6 
C       1.33520000       0.82530000      -0.04240000        6 
C       4.70580000       0.14780000      -0.81970000        6 
H      -2.22840000       1.11590000      -0.80420000        1 
H       2.22070000      -0.90100000       0.89950000        1 
H       3.09450000       0.64380000       1.18710000        1 
H      -2.85950000      -1.19340000      -1.43210000        1 
H      -1.07680000      -1.02990000      -1.23860000        1 
H       0.06110000       0.59010000       0.32930000        1 
H      -1.09050000      -0.09350000       1.80040000        1 
H      -1.22480000       1.66000000       1.38890000        1 
H      -4.42390000       0.21560000      -0.02540000        1 
H      -3.75500000       1.42920000       1.12130000        1 
H      -3.66340000      -0.32910000       1.52130000        1 
H       3.04980000      -0.90310000      -1.54810000        1 
H       0.73540000       0.22950000      -0.76350000        1 
H       1.63890000       1.78860000      -0.50530000        1 
H       5.13620000       0.76390000      -0.03620000        1 
H       5.31880000      -0.11310000      -1.67630000        1 
H      -1.92150000      -2.90290000      -0.25170000        1 
