11
Properties=species:S:1:pos:R:3:Z:I:1 pbc="F F F"
O       2.06410000      -0.15650000      -1.33670000        8 
C      -1.75690000       0.04590000      -0.31850000        6 
C       0.73170000      -0.34560000       0.59290000        6 
C       1.78840000       0.29950000      -0.23940000        6 
H      -0.43620000      -0.09900000       0.09500000        1 
H      -2.41550000      -0.57500000       0.32300000        1 
H      -1.85220000      -0.28270000      -1.37380000        1 
H      -2.05610000       1.11090000      -0.23430000        1 
H       1.02170000      -1.39170000       0.82530000        1 
H       0.59910000       0.21710000       1.54050000        1 
H       2.31180000       1.17700000       0.12610000        1 
