15
Properties=species:S:1:pos:R:3:Z:I:1 pbc="F F F"
O       1.90050000      -0.67290000      -0.78020000        8 
O      -2.56600000      -1.23070000       0.80590000        8 
C      -1.93770000       0.96130000       0.21760000        6 
C       2.50340000       0.45970000      -0.23020000        6 
C      -1.70280000      -0.51240000       0.32640000        6 
C      -0.41840000      -1.11070000      -0.14790000        6 
H      -1.06010000       1.46750000      -0.23770000        1 
H      -2.82910000       1.15070000      -0.41650000        1 
H      -2.11180000       1.38650000       1.22830000        1 
H       3.52540000       0.57010000      -0.64730000        1 
H       1.90830000       1.36250000      -0.48220000        1 
H       2.57040000       0.35210000       0.87280000        1 
H      -0.61780000      -1.84660000      -0.95480000        1 
H       0.10210000      -1.61000000       0.69590000        1 
H       0.73340000      -0.72700000      -0.25020000        1 
