17
Properties=species:S:1:pos:R:3:Z:I:1 pbc="F F F"
C      -1.56660000      -0.29830000       0.61560000        6 
C      -1.98120000       0.85530000      -0.28970000        6 
C       1.79840000      -0.32040000      -0.75800000        6 
C      -0.62720000      -1.24710000      -0.11570000        6 
C       2.44140000       0.55840000       0.21930000        6 
C       2.97090000       1.28240000       1.02460000        6 
H      -1.04830000       0.10790000       1.51030000        1 
H      -2.46970000      -0.85350000       0.94930000        1 
H      -2.65190000       1.54260000       0.26780000        1 
H      -1.08650000       1.42320000      -0.62350000        1 
H      -2.52550000       0.47170000      -1.17910000        1 
H       0.62470000      -0.67410000      -0.31740000        1 
H       2.42360000      -1.22400000      -0.91100000        1 
H       1.68470000       0.21790000      -1.72140000        1 
H      -1.14480000      -1.71770000      -0.97870000        1 
H      -0.27770000      -2.04220000       0.57610000        1 
H       3.43580000       1.91800000       1.73160000        1 
