14
Properties=species:S:1:pos:R:3:Z:I:1 pbc="F F F"
O       1.83990000      -0.94500000       0.11970000        8 
C       2.73090000      -0.00960000      -0.40840000        6 
C      -1.61840000       0.20170000      -0.36300000        6 
C      -0.47450000      -0.17070000       0.52500000        6 
C      -2.87110000       0.23110000       0.09700000        6 
H       2.81670000       0.85730000       0.27990000        1 
H       2.36930000       0.33520000      -1.39970000        1 
H       3.72850000      -0.47970000      -0.52800000        1 
H      -1.41980000       0.45190000      -1.40010000        1 
H      -0.39630000       0.54310000       1.37210000        1 
H      -0.60670000      -1.20370000       0.91060000        1 
H      -3.68640000       0.50420000      -0.56500000        1 
H      -3.09150000      -0.01570000       1.13130000        1 
H       0.67940000      -0.30030000       0.22850000        1 
