20
Properties=species:S:1:pos:R:3:Z:I:1 pbc="F F F"
O       1.91240000       0.23190000       1.95170000        8 
C      -1.47700000      -0.14880000       0.17380000        6 
C      -1.89100000      -0.28540000      -1.28720000        6 
C      -1.53190000       1.30400000       0.63320000        6 
C       2.66350000       0.32330000      -0.28230000        6 
C       1.82260000      -0.23310000       0.82630000        6 
C       0.86490000      -1.35390000       0.56930000        6 
H      -0.23770000      -0.60380000       0.31870000        1 
H      -2.15450000      -0.76110000       0.80720000        1 
H      -1.20750000       0.30190000      -1.93640000        1 
H      -2.93300000       0.07250000      -1.42910000        1 
H      -1.83600000      -1.35250000      -1.58790000        1 
H      -2.56510000       1.70090000       0.53840000        1 
H      -0.84070000       1.92530000       0.02500000        1 
H      -1.22170000       1.36640000       1.69720000        1 
H       2.00750000       0.72050000      -1.08490000        1 
H       3.31110000       1.14540000       0.09080000        1 
H       3.30770000      -0.47860000      -0.69970000        1 
H       0.85990000      -1.63820000      -0.50440000        1 
H       1.14640000      -2.23680000       1.18040000        1 
