19
Properties=species:S:1:pos:R:3:Z:I:1 pbc="F F F"
O       3.07580000       1.00720000      -0.37940000        8 
C      -0.59950000       0.12250000      -0.72000000        6 
C      -1.19220000      -0.45600000       0.56790000        6 
C      -0.91480000      -0.76420000      -1.91970000        6 
C      -0.86100000       0.42720000       1.76640000        6 
C       1.97280000       0.20820000      -0.06300000        6 
H       0.74420000       0.22100000      -0.59420000        1 
H      -1.01410000       1.13800000      -0.90240000        1 
H      -2.29710000      -0.53470000       0.47130000        1 
H      -0.77870000      -1.47250000       0.74560000        1 
H      -0.48410000      -1.77720000      -1.77200000        1 
H      -0.46930000      -0.31960000      -2.83410000        1 
H      -2.01350000      -0.84710000      -2.06140000        1 
H       0.23940000       0.50130000       1.89930000        1 
H      -1.28310000       1.44500000       1.62450000        1 
H      -1.30040000      -0.01400000       2.68580000        1 
H       1.30940000       0.73010000       0.66030000        1 
H       2.30600000      -0.76820000       0.35080000        1 
H       3.56010000       1.15300000       0.47430000        1 
