24
Properties=species:S:1:pos:R:3:Z:I:1 pbc="F F F"
O      -0.02610000      -0.89190000       0.02100000        8 
O      -4.65340000      -1.35660000       0.34910000        8 
C       2.11950000      -0.09320000      -0.70900000        6 
C       2.53090000       0.49540000       0.64690000        6 
C       0.60350000      -0.05550000      -0.90590000        6 
C       4.04700000       0.47380000       0.81870000        6 
C      -3.89280000       0.87190000       0.37880000        6 
C      -3.73150000      -0.59150000       0.11260000        6 
C      -2.44940000      -1.12290000      -0.44090000        6 
H       2.17580000       1.54630000       0.72300000        1 
H       2.06960000      -0.09260000       1.46980000        1 
H       2.47170000      -1.14530000      -0.78650000        1 
H       2.59680000       0.49300000      -1.52460000        1 
H       0.36260000      -0.40400000      -1.93330000        1 
H       0.22860000       0.98460000      -0.78890000        1 
H       4.53420000       1.07860000       0.02440000        1 
H       4.42590000      -0.56930000       0.77040000        1 
H       4.31530000       0.90360000       1.80680000        1 
H      -2.96760000       1.42530000       0.11130000        1 
H      -4.73520000       1.26990000      -0.22490000        1 
H      -4.10760000       1.03330000       1.45600000        1 
H      -2.00330000      -1.85170000       0.26770000        1 
H      -2.63320000      -1.61430000      -1.41920000        1 
H      -1.28110000      -0.78680000      -0.22340000        1 
