15
Properties=species:S:1:pos:R:3:Z:I:1 pbc="F F F"
O       4.05990000       0.21620000       1.16680000        8 
C      -1.53370000       0.29300000      -0.51350000        6 
C      -1.87810000      -0.22170000       0.87880000        6 
C      -0.04050000       0.56370000      -0.63450000        6 
C       2.20610000      -0.74780000      -0.27730000        6 
C       3.15680000      -0.25350000       0.46330000        6 
H      -2.09850000       1.22870000      -0.71530000        1 
H      -1.82680000      -0.46870000      -1.26720000        1 
H      -2.96740000      -0.42790000       0.93990000        1 
H      -1.32510000      -1.16220000       1.08900000        1 
H      -1.61660000       0.53750000       1.64670000        1 
H       0.20610000       0.86990000      -1.67290000        1 
H       0.26590000       1.37060000       0.06500000        1 
H       0.99520000      -0.18170000      -0.27580000        1 
H       2.39650000      -1.61600000      -0.89320000        1 
