25
Properties=species:S:1:pos:R:3:Z:I:1 pbc="F F F"
O      -0.35860000       1.14430000       0.06540000        8 
C      -1.56360000       0.42270000       0.07180000        6 
C       2.75530000      -0.73200000      -0.45130000        6 
C      -1.38870000      -0.86640000       0.89230000        6 
C      -1.96920000       0.08290000      -1.37240000        6 
C      -2.64530000       1.30030000       0.71690000        6 
C       3.05750000      -0.51630000       1.02660000        6 
C       1.66670000       0.22150000      -0.92410000        6 
H       2.41380000      -1.77790000      -0.60520000        1 
H       3.67810000      -0.56770000      -1.04840000        1 
H       2.14340000      -0.68590000       1.63500000        1 
H       3.42640000       0.51750000       1.19840000        1 
H       3.84100000      -1.23180000       1.35400000        1 
H      -0.62030000      -1.52330000       0.43120000        1 
H      -2.34480000      -1.43070000       0.94480000        1 
H      -1.06250000      -0.62340000       1.92640000        1 
H      -2.06250000       1.01190000      -1.97490000        1 
H      -1.20540000      -0.56650000      -1.85150000        1 
H      -2.94350000      -0.45180000      -1.39070000        1 
H      -2.35740000       1.56590000       1.75700000        1 
H      -3.62120000       0.76870000       0.74420000        1 
H      -2.77130000       2.24290000       0.14180000        1 
H       2.01030000       1.27470000      -0.84150000        1 
H       1.40730000       0.00560000      -1.98190000        1 
H       0.51460000       0.41490000      -0.46410000        1 
