15
Properties=species:S:1:pos:R:3:Z:I:1 pbc="F F F"
O       2.69800000       0.41160000       0.55930000        8 
C      -1.15380000      -0.06600000      -1.35170000        6 
C      -1.66370000       0.69330000      -0.19210000        6 
C      -0.02230000      -0.77110000      -1.34880000        6 
C      -1.32460000       0.44940000       1.07410000        6 
C       1.56970000      -0.38980000       0.73000000        6 
H      -1.71490000      -0.00310000      -2.27560000        1 
H      -2.40100000       1.46260000      -0.38440000        1 
H       0.85430000      -0.83870000      -0.20080000        1 
H       0.28750000      -1.28510000      -2.24950000        1 
H      -1.76140000       1.04080000       1.86830000        1 
H      -0.65050000      -0.34840000       1.34850000        1 
H       0.98000000      -0.02350000       1.59640000        1 
H       1.88520000      -1.43690000       0.91690000        1 
H       2.41760000       1.10500000      -0.09050000        1 
