18
Properties=species:S:1:pos:R:3:Z:I:1 pbc="F F F"
O       2.74230000       1.86790000       1.34540000        8 
C      -1.37600000      -1.16090000      -0.07640000        6 
C       2.25920000      -0.17530000       0.26570000        6 
C      -1.94880000       0.01010000       0.67040000        6 
C      -0.11100000      -0.76370000      -0.82610000        6 
C       2.57830000       1.28400000       0.28630000        6 
C      -2.51170000       1.04340000       0.03640000        6 
H      -2.12880000      -1.56780000      -0.78590000        1 
H      -1.11790000      -1.95860000       0.65220000        1 
H       1.10770000      -0.35800000      -0.32760000        1 
H       3.04830000      -0.71730000      -0.29550000        1 
H       2.20410000      -0.58160000       1.29830000        1 
H      -1.92900000       0.00350000       1.75630000        1 
H       0.35710000      -1.66220000      -1.28050000        1 
H      -0.34360000      -0.03330000      -1.62980000        1 
H       2.66420000       1.82930000      -0.64750000        1 
H      -2.92760000       1.86820000       0.60580000        1 
H      -2.56670000       1.07220000      -1.04760000        1 
