19
Properties=species:S:1:pos:R:3:Z:I:1 pbc="F F F"
O       3.46080000      -0.41400000      -0.32470000        8 
C      -0.97470000      -0.19990000       0.14880000        6 
C       0.22590000      -0.25120000      -0.79960000        6 
C      -1.02530000       1.14740000       0.87570000        6 
C      -2.27890000      -0.45180000      -0.61540000        6 
C       2.49810000      -0.06760000       0.62270000        6 
H      -0.85190000      -1.00270000       0.90850000        1 
H       1.39360000      -0.05400000      -0.08750000        1 
H       0.28320000      -1.24520000      -1.29240000        1 
H       0.14400000       0.53440000      -1.58150000        1 
H      -1.87820000       1.16610000       1.58740000        1 
H      -0.09020000       1.30610000       1.45400000        1 
H      -1.14500000       1.98110000       0.15050000        1 
H      -3.14040000      -0.44620000       0.08600000        1 
H      -2.43940000       0.33140000      -1.38750000        1 
H      -2.24510000      -1.44460000      -1.11280000        1 
H       2.91820000       0.68930000       1.31660000        1 
H       2.20070000      -0.96900000       1.19860000        1 
H       2.94460000      -0.60980000      -1.14740000        1 
