20
Properties=species:S:1:pos:R:3:Z:I:1 pbc="F F F"
O      -3.21930000       0.29430000      -1.43350000        8 
C       2.21860000       0.33900000      -0.03770000        6 
C       0.90720000       1.11400000      -0.09250000        6 
C       2.11000000      -0.86070000       0.89750000        6 
C      -2.56870000      -0.24250000       0.76520000        6 
C      -2.31680000      -0.07900000      -0.70050000        6 
C      -0.96760000      -0.36970000      -1.27330000        6 
H       2.47580000      -0.01470000      -1.05900000        1 
H       3.02910000       1.01120000       0.31780000        1 
H      -0.08950000       0.30920000      -0.53930000        1 
H       1.01120000       1.97340000      -0.78780000        1 
H       0.64430000       1.50060000       0.91530000        1 
H       1.31810000      -1.55520000       0.54450000        1 
H       3.07740000      -1.40550000       0.91630000        1 
H       1.87130000      -0.52540000       1.92940000        1 
H      -1.65040000      -0.58650000       1.28680000        1 
H      -2.88460000       0.72900000       1.19970000        1 
H      -3.37240000      -0.99180000       0.92380000        1 
H      -1.04170000      -1.18340000      -2.02480000        1 
H      -0.55210000       0.54370000      -1.74800000        1 
