25
Properties=species:S:1:pos:R:3:Z:I:1 pbc="F F F"
O      -0.29200000      -1.26430000      -0.14130000        8 
C      -2.32120000       0.00720000      -0.40220000        6 
C       3.20470000      -0.62190000       0.49450000        6 
C      -0.78700000       0.03210000      -0.31730000        6 
C      -2.93950000      -0.49380000       0.90990000        6 
C      -2.86030000       1.40090000      -0.74500000        6 
C       3.23330000       0.89740000       0.38000000        6 
C       2.14960000      -1.21280000      -0.43020000        6 
H      -2.61900000      -0.68790000      -1.21840000        1 
H       2.96830000      -0.90460000       1.54260000        1 
H       4.20250000      -1.03450000       0.23140000        1 
H      -0.36710000       0.44990000      -1.25850000        1 
H      -0.45940000       0.67310000       0.53080000        1 
H       2.24250000       1.32220000       0.64870000        1 
H       3.49450000       1.20150000      -0.65620000        1 
H       3.99700000       1.30800000       1.07360000        1 
H      -2.65800000       0.17030000       1.75530000        1 
H      -4.04710000      -0.51740000       0.82660000        1 
H      -2.59200000      -1.52500000       1.13230000        1 
H      -3.96730000       1.37250000      -0.83520000        1 
H      -2.44520000       1.74450000      -1.71650000        1 
H      -2.58290000       2.13380000       0.04320000        1 
H       2.39980000      -0.99940000      -1.49140000        1 
H       2.09100000      -2.31200000      -0.28460000        1 
H       0.95490000      -1.14000000      -0.07230000        1 
