28
Properties=species:S:1:pos:R:3:Z:I:1 pbc="F F F"
O      -5.34550000       0.60650000       0.36640000        8 
C       2.69790000      -0.85310000       0.17220000        6 
C      -2.97110000       0.85010000       0.21400000        6 
C      -1.66690000       0.15650000      -0.19540000        6 
C      -4.17600000      -0.06020000      -0.01840000        6 
C       3.96300000      -1.18230000      -0.62670000        6 
C       2.95970000       0.28210000       1.16460000        6 
C      -0.46340000       1.06370000       0.03590000        6 
C       1.54870000      -0.47830000      -0.76310000        6 
H       2.39720000      -1.75660000       0.74640000        1 
H      -1.70720000      -0.11580000      -1.27240000        1 
H      -1.53250000      -0.77360000       0.39830000        1 
H      -3.09980000       1.78130000      -0.38060000        1 
H      -2.92500000       1.12300000       1.29130000        1 
H      -4.23760000      -0.32910000      -1.09710000        1 
H      -4.06200000      -0.99040000       0.58270000        1 
H       4.29750000      -0.30040000      -1.21460000        1 
H       4.78090000      -1.48610000       0.06110000        1 
H       3.76620000      -2.02460000      -1.32380000        1 
H       3.76250000      -0.00890000       1.87530000        1 
H       3.27000000       1.20690000       0.63170000        1 
H       2.03960000       0.49650000       1.74940000        1 
H       0.64340000       0.42660000      -0.33070000        1 
H      -0.38150000       1.33060000       1.11110000        1 
H      -0.55700000       1.99160000      -0.56770000        1 
H       1.80940000       0.40400000      -1.38670000        1 
H       1.28080000      -1.33430000      -1.41860000        1 
H      -6.09140000      -0.02560000       0.19550000        1 
