21
Properties=species:S:1:pos:R:3:Z:I:1 pbc="F F F"
O       0.27480000       0.68720000       0.30170000        8 
O       3.87890000      -1.25680000       0.54440000        8 
C      -1.56480000       0.23800000      -1.18660000        6 
C      -2.42180000      -0.76190000      -0.39240000        6 
C      -0.06190000       0.09830000      -0.92040000        6 
C      -2.46510000      -0.45710000       1.10430000        6 
C       2.70390000       0.77230000       0.73650000        6 
C       3.84390000      -0.06890000       0.26920000        6 
H      -2.04930000      -1.79720000      -0.55110000        1 
H      -3.46090000      -0.71740000      -0.78470000        1 
H      -1.89360000       1.27980000      -0.97810000        1 
H      -1.73980000       0.04960000      -2.26820000        1 
H       0.49610000       0.61540000      -1.73070000        1 
H       0.23630000      -0.97270000      -0.92030000        1 
H      -2.75010000       0.60210000       1.27910000        1 
H      -1.48100000      -0.66140000       1.57400000        1 
H      -3.21920000      -1.11050000       1.59160000        1 
H       2.66730000       0.77410000       1.84610000        1 
H       2.82660000       1.81360000       0.37220000        1 
H       4.64240000       0.37130000      -0.31910000        1 
H       1.53750000       0.50220000       0.43270000        1 
