25
Properties=species:S:1:pos:R:3:Z:I:1 pbc="F F F"
C      -1.39180000       0.07110000       0.11030000        6 
C      -2.51720000      -0.84970000       0.59080000        6 
C      -1.51700000       0.34040000      -1.39200000        6 
C      -1.39380000       1.38460000       0.89770000        6 
C       2.38840000       1.07190000      -0.12530000        6 
C       2.17020000      -0.41180000      -0.04310000        6 
C       1.00020000      -0.92220000       0.74030000        6 
C       2.99800000      -1.27140000      -0.65350000        6 
H      -0.21430000      -0.55120000       0.33080000        1 
H      -2.48220000      -1.81290000       0.03910000        1 
H      -3.50960000      -0.37640000       0.42840000        1 
H      -2.39430000      -1.06780000       1.67290000        1 
H      -1.47650000      -0.61640000      -1.95450000        1 
H      -2.47560000       0.85390000      -1.62140000        1 
H      -0.67500000       0.97790000      -1.73560000        1 
H      -0.55110000       2.02780000       0.56660000        1 
H      -2.34820000       1.93340000       0.74560000        1 
H      -1.26480000       1.17860000       1.98140000        1 
H       3.28430000       1.32660000      -0.73150000        1 
H       2.52640000       1.48250000       0.89680000        1 
H       1.50110000       1.55090000      -0.58970000        1 
H       0.31410000      -1.49480000       0.08110000        1 
H       1.34660000      -1.56360000       1.57810000        1 
H       2.83110000      -2.34260000      -0.58770000        1 
H       3.85090000      -0.91890000      -1.22550000        1 
