15
Properties=species:S:1:pos:R:3:Z:I:1 pbc="F F F"
O      -2.21050000       1.48690000       1.45600000        8 
C      -1.48370000      -0.54410000       0.49650000        6 
C       1.52160000      -0.10950000      -0.86840000        6 
C      -1.61570000       0.94330000       0.53930000        6 
C       0.98200000      -1.26140000      -0.08280000        6 
C       1.16270000       1.14230000      -0.57970000        6 
H      -0.14070000      -0.88470000       0.50200000        1 
H      -1.95370000      -0.92930000      -0.43200000        1 
H      -1.98020000      -1.00950000       1.37480000        1 
H       2.20420000      -0.29580000      -1.69220000        1 
H      -1.17830000       1.54510000      -0.25010000        1 
H       1.31060000      -1.18680000       0.97540000        1 
H       1.34810000      -2.21750000      -0.51180000        1 
H       1.55740000       1.96850000      -1.16220000        1 
H       0.47630000       1.35240000       0.23530000        1 
