21
Properties=species:S:1:pos:R:3:Z:I:1 pbc="F F F"
O       0.39280000      -1.33850000       0.54260000        8 
O       3.57780000       0.28170000      -1.84150000        8 
C      -0.65620000      -0.66810000      -0.09930000        6 
C      -1.00920000       0.60190000       0.69780000        6 
C      -1.84640000      -1.62300000      -0.21720000        6 
C      -1.98430000       1.51610000      -0.04450000        6 
C       2.63030000      -0.29720000       0.23260000        6 
C       3.25410000       0.65910000      -0.72760000        6 
H      -0.32910000      -0.38620000      -1.12560000        1 
H      -1.43860000       0.32710000       1.68600000        1 
H      -0.07690000       1.17770000       0.88600000        1 
H      -1.59760000       1.75690000      -1.05750000        1 
H      -2.10430000       2.46400000       0.52150000        1 
H      -2.98230000       1.03920000      -0.13190000        1 
H      -2.24740000      -1.87410000       0.78810000        1 
H      -1.52380000      -2.56260000      -0.71420000        1 
H      -2.65260000      -1.17310000      -0.83280000        1 
H       2.37970000       0.22520000       1.17940000        1 
H       3.33440000      -1.12810000       0.44760000        1 
H       3.41840000       1.69260000      -0.44030000        1 
H       1.46100000      -0.69050000       0.25090000        1 
