20
Properties=species:S:1:pos:R:3:Z:I:1 pbc="F F F"
O       2.04490000      -1.57900000      -0.35280000        8 
C      -1.74380000      -0.29990000      -0.55880000        6 
C      -3.26820000      -0.25400000      -0.52480000        6 
C       1.48040000       0.10160000       1.19010000        6 
C       3.16120000       0.44470000      -0.78760000        6 
C       2.21790000      -0.42110000      -0.00620000        6 
C      -1.14430000       0.22790000       0.73860000        6 
H      -1.40880000      -1.34760000      -0.71360000        1 
H      -1.37420000       0.31590000      -1.40620000        1 
H      -3.61980000       0.79120000      -0.39000000        1 
H      -3.65460000      -0.88150000       0.30650000        1 
H      -3.67290000      -0.64430000      -1.48230000        1 
H       0.19260000      -0.00430000       0.98580000        1 
H       1.75560000      -0.49440000       2.08530000        1 
H       1.72330000       1.16710000       1.38420000        1 
H       3.22080000       1.46800000      -0.36160000        1 
H       2.81260000       0.51820000      -1.83910000        1 
H       4.17610000      -0.00500000      -0.77270000        1 
H      -1.46690000      -0.39170000       1.60240000        1 
H      -1.43190000       1.28820000       0.90290000        1 
