21
Properties=species:S:1:pos:R:3:Z:I:1 pbc="F F F"
O      -2.60390000       1.03120000       0.80840000        8 
O       4.17130000       0.30960000      -0.42820000        8 
C      -0.57460000      -0.08580000       0.06540000        6 
C      -1.20630000       1.01160000       0.94010000        6 
C      -0.79820000       0.18340000      -1.42690000        6 
C      -1.09190000      -1.47600000       0.45200000        6 
C       2.05780000      -0.21080000       0.47260000        6 
C       3.01040000       0.00900000      -0.65380000        6 
H       0.70790000      -0.06770000       0.28040000        1 
H      -0.76850000       2.00380000       0.68220000        1 
H      -0.95490000       0.81680000       2.00420000        1 
H      -1.87710000       0.12360000      -1.68480000        1 
H      -0.41710000       1.19170000      -1.69430000        1 
H      -0.24590000      -0.56590000      -2.03260000        1 
H      -2.18330000      -1.56000000       0.26180000        1 
H      -0.56480000      -2.25440000      -0.13940000        1 
H      -0.89690000      -1.66950000       1.52810000        1 
H       2.41460000      -1.04380000       1.11380000        1 
H       1.96600000       0.71540000       1.07770000        1 
H       2.66910000      -0.09900000      -1.67740000        1 
H      -2.81380000       1.63710000       0.05070000        1 
