13
Properties=species:S:1:pos:R:3:Z:I:1 pbc="F F F"
O       2.30460000       0.73330000      -0.30950000        8 
C      -0.95890000      -0.67340000      -0.04130000        6 
C      -1.55570000       0.72210000      -0.07190000        6 
C       1.70370000      -0.43120000       0.16740000        6 
H       0.41970000      -0.58540000      -0.00540000        1 
H      -1.26540000      -1.23470000      -0.94910000        1 
H      -1.31380000      -1.21580000       0.86020000        1 
H      -2.66390000       0.65840000      -0.10090000        1 
H      -1.24500000       1.28130000       0.83530000        1 
H      -1.19660000       1.26240000      -0.97260000        1 
H       2.20800000      -0.75490000       1.10190000        1 
H       1.79380000      -1.23220000      -0.59490000        1 
H       1.76940000       1.47010000       0.08080000        1 
