19
Properties=species:S:1:pos:R:3:Z:I:1 pbc="F F F"
O       3.06660000      -0.24320000       0.45410000        8 
C      -0.52310000       0.12830000       0.01190000        6 
C      -1.48280000      -0.63950000      -0.90180000        6 
C      -0.37030000       1.57750000      -0.45940000        6 
C      -1.00430000       0.07990000       1.46500000        6 
C       1.90970000      -0.97330000       0.16480000        6 
H       0.66550000      -0.45550000      -0.05090000        1 
H      -2.49610000      -0.18340000      -0.88070000        1 
H      -1.10430000      -0.62900000      -1.94590000        1 
H      -1.55660000      -1.69770000      -0.57270000        1 
H       0.01430000       1.60030000      -1.50110000        1 
H      -1.34620000       2.10810000      -0.42340000        1 
H       0.35580000       2.11360000       0.18780000        1 
H      -2.00150000       0.56010000       1.56570000        1 
H      -1.07550000      -0.97440000       1.80730000        1 
H      -0.28170000       0.60760000       2.12300000        1 
H       2.15250000      -2.04990000       0.03200000        1 
H       1.41420000      -0.57210000      -0.74570000        1 
H       3.66380000      -0.35750000      -0.33010000        1 
