28
Properties=species:S:1:pos:R:3:Z:I:1 pbc="F F F"
O      -2.17580000       1.53870000       1.28690000        8 
C      -1.56300000      -0.11020000      -0.35630000        6 
C       2.07850000      -0.21900000       0.01430000        6 
C      -2.29420000       0.18090000       0.96280000        6 
C      -2.20560000       0.64710000      -1.52510000        6 
C      -1.54850000      -1.61590000      -0.64140000        6 
C       2.01640000      -0.58210000       1.49970000        6 
C       3.43830000       0.38980000      -0.34250000        6 
C       0.94470000       0.74310000      -0.33890000        6 
H      -0.35710000       0.27970000      -0.24230000        1 
H       1.94110000      -1.14950000      -0.57880000        1 
H      -1.84100000      -0.42740000       1.77760000        1 
H      -3.36960000      -0.09440000       0.87090000        1 
H       2.15560000       0.32150000       2.13180000        1 
H       1.03260000      -1.03960000       1.73920000        1 
H       2.81070000      -1.31850000       1.74670000        1 
H       3.61420000       1.32400000       0.23350000        1 
H       4.25170000      -0.33140000      -0.11340000        1 
H       3.47910000       0.62420000      -1.42770000        1 
H      -2.16470000       1.74180000      -1.34380000        1 
H      -1.65320000       0.43640000      -2.46540000        1 
H      -3.26640000       0.34240000      -1.65530000        1 
H      -2.58390000      -2.00630000      -0.74480000        1 
H      -1.04060000      -2.15630000       0.18550000        1 
H      -0.99030000      -1.82160000      -1.57940000        1 
H       0.91610000       0.93170000      -1.43330000        1 
H       1.05110000       1.70660000       0.20480000        1 
H      -2.67610000       1.66430000       2.13480000        1 
