15
Properties=species:S:1:pos:R:3:Z:I:1 pbc="F F F"
O      -1.18590000       2.02660000       0.33600000        8 
O       3.02760000       0.19530000       0.26160000        8 
C      -1.08020000       0.74980000       0.90500000        6 
C      -0.65040000      -0.24890000      -0.13840000        6 
C       0.70620000      -0.10850000      -0.76010000        6 
C      -1.45360000      -1.25750000      -0.50610000        6 
H      -0.34670000       0.75180000       1.74320000        1 
H      -2.06770000       0.47760000       1.33600000        1 
H       1.32230000      -1.00850000      -0.55130000        1 
H       0.61460000       0.04490000      -1.85620000        1 
H      -1.13390000      -1.97530000      -1.25590000        1 
H      -2.43880000      -1.37960000      -0.06660000        1 
H      -0.26700000       2.40060000       0.29670000        1 
H       1.60940000       0.07030000      -0.09510000        1 
H       3.34410000      -0.73870000       0.35130000        1 
