24
Properties=species:S:1:pos:R:3:Z:I:1 pbc="F F F"
O       0.03740000       0.75590000       1.65760000        8 
O       3.55170000      -1.58520000      -1.36370000        8 
C      -1.54630000       0.58520000      -0.16450000        6 
C      -0.60480000      -0.15230000       0.80200000        6 
C      -2.08870000      -0.38570000      -1.21910000        6 
C      -2.70490000       1.25480000       0.58640000        6 
C       3.59430000      -0.00970000       0.38610000        6 
C       2.89900000      -0.85670000      -0.63260000        6 
C       1.41090000      -0.81690000      -0.76110000        6 
H      -0.96460000       1.37450000      -0.69000000        1 
H       0.32210000      -0.77570000       0.10630000        1 
H      -1.16200000      -0.92560000       1.38160000        1 
H      -2.67440000      -1.19930000      -0.73920000        1 
H      -1.25150000      -0.83660000      -1.79350000        1 
H      -2.74430000       0.15340000      -1.93590000        1 
H      -3.29150000       0.50160000       1.15520000        1 
H      -2.31830000       2.01950000       1.29260000        1 
H      -3.38080000       1.76770000      -0.13080000        1 
H       2.86130000       0.59060000       0.96580000        1 
H       4.15970000      -0.65870000       1.08710000        1 
H       4.30000000       0.68040000      -0.12210000        1 
H       1.12690000      -0.47990000      -1.78000000        1 
H       0.98610000      -1.82390000      -0.56640000        1 
H      -0.51740000       0.82230000       2.47800000        1 
