23
Properties=species:S:1:pos:R:3:Z:I:1 pbc="F F F"
O      -3.30090000       0.59780000      -0.98510000        8 
C      -1.62660000      -0.50230000       0.37310000        6 
C      -2.02300000       0.01880000      -1.01890000        6 
C      -0.31790000      -1.29340000       0.28810000        6 
C      -1.48060000       0.64750000       1.37780000        6 
C       2.36620000       0.38800000       0.16350000        6 
C       1.63230000      -0.13690000      -1.02880000        6 
C       3.69840000       0.46930000       0.17620000        6 
H      -2.42320000      -1.18900000       0.73630000        1 
H      -1.26410000       0.74290000      -1.39860000        1 
H      -2.05420000      -0.83150000      -1.73360000        1 
H       0.72130000      -0.46460000      -0.17040000        1 
H      -0.43040000      -2.15090000      -0.40930000        1 
H      -0.04500000      -1.69560000       1.28710000        1 
H      -0.71540000       1.37590000       1.03280000        1 
H      -1.17700000       0.25290000       2.37100000        1 
H      -2.44910000       1.17520000       1.50590000        1 
H       1.79910000       0.70740000       1.03190000        1 
H       1.83680000       0.49770000      -1.91690000        1 
H       1.93300000      -1.18580000      -1.23500000        1 
H       4.21070000       0.85340000       1.05230000        1 
H       4.28470000       0.15510000      -0.68220000        1 
H      -3.17510000       1.56790000      -0.81700000        1 
