24
Properties=species:S:1:pos:R:3:Z:I:1 pbc="F F F"
C       3.04090000      -0.25190000      -0.26660000        6 
C      -2.89310000      -0.52790000       0.20420000        6 
C       1.64540000       0.21230000       0.16360000        6 
C       4.09470000       0.14510000       0.76300000        6 
C      -1.89400000       0.44370000      -0.41390000        6 
C      -4.28220000       0.09430000       0.30670000        6 
C       0.59230000      -0.18360000      -0.86390000        6 
H       3.04930000      -1.35790000      -0.38180000        1 
H       3.30350000       0.20630000      -1.24520000        1 
H      -2.94550000      -1.44440000      -0.42180000        1 
H      -2.54260000      -0.81520000       1.21860000        1 
H       1.63320000       1.31780000       0.27760000        1 
H       1.37910000      -0.24570000       1.14050000        1 
H       3.86890000      -0.32120000       1.74570000        1 
H       4.12420000       1.24950000       0.87880000        1 
H       5.09360000      -0.20340000       0.42590000        1 
H      -0.70160000      -0.13820000      -0.48360000        1 
H      -2.21340000       0.72610000      -1.43980000        1 
H      -1.80820000       1.35890000       0.21000000        1 
H      -4.65740000       0.36900000      -0.70220000        1 
H      -4.98420000      -0.63710000       0.75970000        1 
H      -4.25230000       1.00160000       0.94700000        1 
H       0.80280000       0.28970000      -1.84650000        1 
H       0.54640000      -1.28790000      -0.97580000        1 
