13
Properties=species:S:1:pos:R:3:Z:I:1 pbc="F F F"
C      -0.21720000      -1.05370000       0.15950000        6 
C       1.04430000      -0.33430000       0.54460000        6 
C      -1.36320000      -0.07210000      -0.04760000        6 
C       1.70920000       0.43580000      -0.32220000        6 
H      -0.49500000      -1.75200000       0.97750000        1 
H      -0.05180000      -1.64850000      -0.76490000        1 
H       1.44110000      -0.46610000       1.54700000        1 
H      -1.16420000       0.58580000      -0.92010000        1 
H      -2.30910000      -0.62650000      -0.22310000        1 
H       1.35140000       0.57240000      -1.33810000        1 
H       2.62450000       0.93180000      -0.01620000        1 
H      -1.27970000       2.17580000       0.27560000        1 
H      -1.29030000       1.25160000       0.12810000        1 
