23
Properties=species:S:1:pos:R:3:Z:I:1 pbc="F F F"
O      -4.32720000      -0.59250000       0.24680000        8 
C      -2.05690000      -1.39390000       0.25280000        6 
C      -0.58180000      -1.01430000       0.45180000        6 
C      -2.98910000      -0.17650000       0.27700000        6 
C       0.00760000      -0.28230000      -0.75180000        6 
C       2.74600000       0.98760000       0.50940000        6 
C       2.56620000       0.32220000      -0.81750000        6 
C       3.48800000       2.08980000       0.63650000        6 
H       0.00390000      -1.94520000       0.60920000        1 
H      -0.46530000      -0.38630000       1.36130000        1 
H      -2.18090000      -1.94370000      -0.70570000        1 
H      -2.35310000      -2.08090000       1.07540000        1 
H      -2.82350000       0.40070000       1.21150000        1 
H      -2.78170000       0.49540000      -0.58550000        1 
H       1.38780000      -0.10520000      -0.55010000        1 
H      -0.45710000       0.71830000      -0.87070000        1 
H      -0.14170000      -0.87440000      -1.67960000        1 
H       2.26140000       0.56130000       1.38180000        1 
H       3.54760000      -0.00850000      -1.21860000        1 
H       2.07850000       1.01680000      -1.53370000        1 
H       3.98150000       2.53240000      -0.22370000        1 
H       3.60510000       2.55640000       1.60920000        1 
H      -4.51540000      -0.87710000      -0.68570000        1 
