21
Properties=species:S:1:pos:R:3:Z:I:1 pbc="F F F"
O       0.68540000       1.00870000       0.16780000        8 
O       3.48490000      -1.56770000       1.35550000        8 
C      -1.53410000       0.35430000      -0.50110000        6 
C      -0.08460000      -0.08470000      -0.24150000        6 
C      -2.34560000      -0.80390000      -1.09320000        6 
C      -2.19640000       0.86390000       0.78600000        6 
C       3.09170000       0.57920000       0.45620000        6 
C       3.08570000      -0.91360000       0.40560000        6 
H      -1.52500000       1.18350000      -1.24310000        1 
H       0.35370000      -0.49990000      -1.17530000        1 
H      -0.05610000      -0.87290000       0.54290000        1 
H      -1.88930000      -1.14360000      -2.04740000        1 
H      -3.38470000      -0.47410000      -1.30760000        1 
H      -2.37950000      -1.66090000      -0.38640000        1 
H      -1.64060000       1.73760000       1.18730000        1 
H      -2.21790000       0.06570000       1.55900000        1 
H      -3.23830000       1.18850000       0.57760000        1 
H       3.47690000       0.94270000       1.43290000        1 
H       3.72830000       0.97660000      -0.36140000        1 
H       2.72260000      -1.42000000      -0.48220000        1 
H       1.86290000       0.54040000       0.36820000        1 
