20
Properties=species:S:1:pos:R:3:Z:I:1 pbc="F F F"
O      -2.41480000      -0.54700000      -2.32950000        8 
C       1.52380000      -1.00220000       0.88460000        6 
C      -1.52160000       0.18900000      -1.54160000        6 
C      -2.27460000       0.93830000      -0.45100000        6 
C       2.24240000       0.31740000       0.90620000        6 
C       0.36980000      -0.94900000      -0.10460000        6 
C       2.32780000       1.05970000       2.01410000        6 
H       2.23600000      -1.79800000       0.57950000        1 
H       1.12330000      -1.25990000       1.88930000        1 
H      -0.64630000      -0.59060000      -1.00830000        1 
H      -0.99060000       0.91970000      -2.18750000        1 
H      -1.55890000       1.53350000       0.15390000        1 
H      -3.02170000       1.62310000      -0.90540000        1 
H      -2.79490000       0.21760000       0.21450000        1 
H       2.71220000       0.67460000      -0.00590000        1 
H       0.74780000      -0.77820000      -1.13550000        1 
H      -0.19570000      -1.90430000      -0.07920000        1 
H       2.85800000       2.00620000       1.99220000        1 
H       1.87370000       0.73570000       2.94550000        1 
H      -2.59560000      -1.38560000      -1.83110000        1 
