23
Properties=species:S:1:pos:R:3:Z:I:1 pbc="F F F"
O       3.63870000       1.85380000      -0.73440000        8 
C      -2.45840000      -0.05650000       0.57220000        6 
C      -1.26960000      -1.01640000       0.70040000        6 
C       1.97860000       0.53310000       0.31190000        6 
C      -2.06610000       1.26570000      -0.08630000        6 
C       1.58200000      -0.31380000      -0.89160000        6 
C      -0.79010000      -1.50600000      -0.66130000        6 
C       3.37040000       1.06910000       0.16160000        6 
H      -2.85300000       0.15870000       1.58870000        1 
H      -3.27320000      -0.53610000      -0.01290000        1 
H      -0.43100000      -0.51140000       1.22660000        1 
H      -1.57670000      -1.89470000       1.30840000        1 
H       1.26590000       1.37780000       0.42390000        1 
H       1.92470000      -0.09390000       1.22720000        1 
H      -1.26050000       1.76280000       0.49500000        1 
H      -2.94790000       1.93980000      -0.11730000        1 
H      -1.71720000       1.09530000      -1.12660000        1 
H       0.35700000      -0.79340000      -0.70560000        1 
H       2.28440000      -1.16630000      -1.01200000        1 
H       1.58610000       0.30060000      -1.81720000        1 
H      -1.59160000      -2.08130000      -1.17170000        1 
H       0.10260000      -2.15470000      -0.53850000        1 
H       4.14500000       0.76790000       0.85940000        1 
