23
Properties=species:S:1:pos:R:3:Z:I:1 pbc="F F F"
O       2.74690000       1.44760000      -1.75260000        8 
C      -2.12630000      -0.21730000      -0.19950000        6 
C      -2.23920000       0.40760000       1.19290000        6 
C      -2.56590000      -1.68470000      -0.17650000        6 
C       1.41670000       1.17340000       0.16540000        6 
C       3.76650000       0.06240000      -0.14870000        6 
C       2.65020000       0.92920000      -0.65140000        6 
C      -0.69440000      -0.08880000      -0.71820000        6 
H      -2.79630000       0.34180000      -0.88860000        1 
H      -1.93560000       1.47580000       1.15680000        1 
H      -1.58760000      -0.12650000       1.91790000        1 
H      -3.28990000       0.35750000       1.55040000        1 
H      -2.50410000      -2.11810000      -1.19760000        1 
H      -3.61880000      -1.76270000       0.16930000        1 
H      -1.91930000      -2.27830000       0.50520000        1 
H       0.36810000       0.76070000      -0.49890000        1 
H       1.45790000       0.63510000       1.13530000        1 
H       1.31390000       2.26040000       0.36640000        1 
H       3.54450000      -0.34050000       0.86160000        1 
H       3.91710000      -0.78920000      -0.84480000        1 
H       4.70250000       0.65700000      -0.09530000        1 
H       0.01650000      -0.65810000      -0.08110000        1 
H      -0.62370000      -0.44430000      -1.76830000        1 
