17
Properties=species:S:1:pos:R:3:Z:I:1 pbc="F F F"
C      -3.22130000      -0.41830000      -0.59020000        6 
C      -1.83540000      -0.63990000      -0.06910000        6 
C       2.26340000       0.51370000       0.90370000        6 
C      -0.80700000       0.08650000      -0.50950000        6 
C       1.59730000      -0.70550000       0.35130000        6 
C       2.86280000       1.38990000       0.09610000        6 
H      -3.54540000       0.62200000      -0.37550000        1 
H      -3.92360000      -1.12220000      -0.09660000        1 
H      -3.24710000      -0.59480000      -1.68630000        1 
H      -1.66110000      -1.40490000       0.68070000        1 
H       2.24790000       0.69400000       1.97450000        1 
H       2.34740000      -1.35610000      -0.14580000        1 
H       1.10720000      -1.27330000       1.16960000        1 
H       3.33720000       2.27370000       0.51020000        1 
H       2.88530000       1.23400000      -0.97840000        1 
H       0.54090000      -0.15820000       0.02440000        1 
H      -0.94840000       0.85950000      -1.25910000        1 
