27
Properties=species:S:1:pos:R:3:Z:I:1 pbc="F F F"
C      -1.75630000      -0.04830000      -0.08010000        6 
C       2.47780000      -0.37880000       0.47850000        6 
C       1.70150000       0.15070000      -0.73000000        6 
C      -1.42730000       0.40840000       1.34450000        6 
C      -2.64940000      -1.29240000      -0.05630000        6 
C      -2.42430000       1.08170000      -0.86940000        6 
C       3.59580000       0.57970000       0.87790000        6 
C       0.57830000      -0.80590000      -1.10620000        6 
H      -0.66650000      -0.35130000      -0.66300000        1 
H       1.78670000      -0.50610000       1.34040000        1 
H       2.92280000      -1.36830000       0.23440000        1 
H       2.38490000       0.27040000      -1.59890000        1 
H       1.25890000       1.14050000      -0.48510000        1 
H       4.14110000       0.17030000       1.75430000        1 
H       3.17510000       1.57050000       1.15270000        1 
H       4.31400000       0.70550000       0.03970000        1 
H      -2.35370000       0.68420000       1.89310000        1 
H      -0.91090000      -0.40590000       1.89580000        1 
H      -0.75020000       1.28840000       1.31560000        1 
H      -2.14020000      -2.11660000       0.48690000        1 
H      -3.61640000      -1.07320000       0.44580000        1 
H      -2.85160000      -1.63610000      -1.09300000        1 
H      -1.75300000       1.96570000      -0.91120000        1 
H      -3.38370000       1.37990000      -0.39430000        1 
H      -2.62510000       0.75190000      -1.91080000        1 
H      -0.02130000      -0.37850000      -1.93740000        1 
H       0.99300000      -1.78630000      -1.42390000        1 
