20
Properties=species:S:1:pos:R:3:Z:I:1 pbc="F F F"
O       3.61630000       0.07090000       0.52800000        8 
C       2.35770000       0.48940000       0.08040000        6 
C       1.57510000      -0.70650000      -0.43590000        6 
C      -2.39180000      -0.97760000       0.65020000        6 
C      -1.63990000       0.17250000       0.03670000        6 
C      -0.89510000      -0.03070000      -1.24990000        6 
C      -1.61570000       1.37420000       0.62820000        6 
H       1.79370000       0.95850000       0.91660000        1 
H       2.47360000       1.22970000      -0.74170000        1 
H       0.31240000      -0.28010000      -0.88390000        1 
H       1.43820000      -1.45190000       0.37610000        1 
H       2.11760000      -1.18090000      -1.28120000        1 
H      -3.16400000      -1.33630000      -0.06210000        1 
H      -2.89500000      -0.68720000       1.59750000        1 
H      -1.68690000      -1.80750000       0.86680000        1 
H      -0.94040000      -1.09080000      -1.57820000        1 
H      -1.32540000       0.61500000      -2.04450000        1 
H      -2.14100000       1.55140000       1.56180000        1 
H      -1.06730000       2.19990000       0.18400000        1 
H       4.07800000       0.88790000       0.85090000        1 
