23
Properties=species:S:1:pos:R:3:Z:I:1 pbc="F F F"
C       1.69670000      -1.32790000       0.19160000        6 
C       0.25090000      -1.26500000      -0.28070000        6 
C      -1.84360000      -0.41800000      -1.07420000        6 
C      -1.77120000       0.67380000      -0.04550000        6 
C       2.42210000      -0.06610000      -0.18510000        6 
C      -1.08500000       0.38930000       1.25500000        6 
C      -2.30550000       1.88170000      -0.27450000        6 
C       2.95630000       0.74460000       0.73290000        6 
H       2.20370000      -2.19160000      -0.28870000        1 
H       1.70840000      -1.48760000       1.29200000        1 
H      -0.39600000      -0.16570000       0.31090000        1 
H       0.20850000      -1.16560000      -1.38660000        1 
H      -0.27940000      -2.19500000       0.01420000        1 
H      -2.38320000      -1.29060000      -0.65000000        1 
H      -0.81600000      -0.73080000      -1.35440000        1 
H      -2.37450000      -0.08790000      -1.99300000        1 
H       2.51800000       0.19060000      -1.23620000        1 
H      -0.21760000       1.06930000       1.39090000        1 
H      -1.79580000       0.50560000       2.10030000        1 
H      -2.24750000       2.66430000       0.47640000        1 
H      -2.80640000       2.10520000      -1.21140000        1 
H       3.47490000       1.64610000       0.42320000        1 
H       2.88230000       0.52140000       1.79290000        1 
