14
Properties=species:S:1:pos:R:3:Z:I:1 pbc="F F F"
O       1.75410000       1.06760000      -1.40170000        8 
C      -1.15990000       0.05050000       0.70430000        6 
C      -1.95550000       0.04820000      -0.58860000        6 
C       1.45480000      -0.40980000       0.40090000        6 
C       2.28810000       0.34840000      -0.57410000        6 
H       0.13210000      -0.27050000       0.44280000        1 
H      -1.19880000       1.05810000       1.16930000        1 
H      -1.58520000      -0.69370000       1.41020000        1 
H      -1.91240000      -0.95950000      -1.05230000        1 
H      -3.01430000       0.31030000      -0.38100000        1 
H      -1.52620000       0.79100000      -1.29300000        1 
H       1.63450000      -1.49800000       0.27810000        1 
H       1.71940000      -0.10450000       1.43440000        1 
H       3.36930000       0.26210000      -0.54950000        1 
