28
Properties=species:S:1:pos:R:3:Z:I:1 pbc="F F F"
O      -3.79730000       1.17200000       0.49670000        8 
C      -2.68270000       0.33520000       0.30020000        6 
C       3.17580000      -0.66110000      -0.46300000        6 
C       2.00850000       0.29790000      -0.20610000        6 
C      -1.49930000       1.15730000      -0.23890000        6 
C      -2.29460000      -0.34090000       1.62760000        6 
C      -3.06530000      -0.73830000      -0.72770000        6 
C       4.51480000       0.01410000      -0.18150000        6 
C       0.67080000      -0.37530000      -0.48700000        6 
H       3.15840000      -0.99770000      -1.52260000        1 
H       3.07850000      -1.55430000       0.19210000        1 
H       2.02190000       0.63450000       0.85300000        1 
H       2.10170000       1.19090000      -0.86110000        1 
H       4.64820000       0.89720000      -0.84220000        1 
H       4.56790000       0.33820000       0.87980000        1 
H       5.34060000      -0.70240000      -0.37560000        1 
H      -0.45740000       0.36740000      -0.47490000        1 
H      -1.78240000       1.66740000      -1.18470000        1 
H      -1.19430000       1.93220000       0.49680000        1 
H      -1.43990000      -1.03590000       1.47980000        1 
H      -2.00070000       0.42050000       2.38180000        1 
H      -3.15470000      -0.91630000       2.03240000        1 
H      -3.92710000      -1.33540000      -0.35910000        1 
H      -2.21310000      -1.42630000      -0.91750000        1 
H      -3.35940000      -0.26490000      -1.68920000        1 
H       0.52300000      -1.25180000       0.17940000        1 
H       0.60360000      -0.69040000      -1.55010000        1 
H      -3.54570000       1.86610000       1.16150000        1 
