25
Properties=species:S:1:pos:R:3:Z:I:1 pbc="F F F"
O      -2.90770000      -1.17170000      -1.42310000        8 
C      -1.97100000       0.62560000      -0.12060000        6 
C       2.30390000       0.28950000       0.15090000        6 
C      -2.48220000      -0.82330000      -0.13420000        6 
C      -0.73600000       0.78070000      -1.01580000        6 
C      -1.64320000       1.06400000       1.31100000        6 
C       3.62850000      -0.35600000       0.54580000        6 
C       1.40640000      -0.69460000      -0.58860000        6 
H      -2.77450000       1.28930000      -0.51050000        1 
H       1.77910000       0.64430000       1.06340000        1 
H       2.50000000       1.16480000      -0.50420000        1 
H      -3.33990000      -0.91940000       0.56950000        1 
H      -1.67450000      -1.51490000       0.19720000        1 
H       4.25780000       0.38550000       1.08150000        1 
H       3.45020000      -1.22250000       1.21790000        1 
H       4.17510000      -0.69910000      -0.35840000        1 
H       0.24670000      -0.00430000      -0.58770000        1 
H      -0.98110000       0.51210000      -2.06520000        1 
H      -0.38450000       1.83460000      -1.00540000        1 
H      -2.54810000       0.99070000       1.95130000        1 
H      -0.84420000       0.42440000       1.74440000        1 
H      -1.30120000       2.12100000       1.31990000        1 
H       1.16170000      -1.56570000       0.05590000        1 
H       1.88980000      -1.04010000      -1.52720000        1 
H      -3.21120000      -2.11500000      -1.36760000        1 
