13
Properties=species:S:1:pos:R:3:Z:I:1 pbc="F F F"
O      -1.62650000       0.57290000       1.73950000        8 
C       1.13940000      -0.30800000      -0.87820000        6 
C      -1.47200000      -0.57670000      -0.30720000        6 
C      -1.98330000       0.51250000       0.57450000        6 
C       1.93050000       0.21760000       0.23470000        6 
C       2.58200000       0.65060000       1.15180000        6 
H      -0.14030000      -0.37500000      -0.51960000        1 
H       1.50250000      -1.32210000      -1.14400000        1 
H       1.24280000       0.36340000      -1.75540000        1 
H      -1.77900000      -1.56400000       0.09720000        1 
H      -1.88010000      -0.45770000      -1.33260000        1 
H      -2.67020000       1.25560000       0.18250000        1 
H       3.15400000       1.03080000       1.95690000        1 
