14
Properties=species:S:1:pos:R:3:Z:I:1 pbc="F F F"
O      -1.59590000       0.94720000       1.07030000        8 
O       2.16490000      -0.99500000       1.40430000        8 
C      -1.37740000       1.03990000      -0.31060000        6 
C      -0.77340000      -0.25490000      -0.83690000        6 
C       1.70070000      -0.60840000       0.14750000        6 
H      -2.34960000       1.22020000      -0.81600000        1 
H      -0.70170000       1.89370000      -0.54300000        1 
H       0.44750000      -0.48200000      -0.23090000        1 
H      -0.62300000      -0.17970000      -1.93450000        1 
H      -1.45300000      -1.10680000      -0.62260000        1 
H       2.51100000      -0.08510000      -0.40070000        1 
H       1.38860000      -1.50570000      -0.42680000        1 
H      -0.70980000       1.05280000       1.50570000        1 
H       1.37110000      -0.93630000       1.99420000        1 
