16
Properties=species:S:1:pos:R:3:Z:I:1 pbc="F F F"
O       2.25560000       2.06170000      -1.06110000        8 
C      -1.07950000      -0.28150000       0.13220000        6 
C      -2.34580000      -0.84850000      -0.35720000        6 
C       0.09060000      -0.70700000      -0.33200000        6 
C      -3.51580000      -0.42150000       0.10860000        6 
C       2.32260000       0.43870000       0.63690000        6 
C       2.95370000       1.39140000      -0.31910000        6 
H      -1.08860000       0.49760000       0.88470000        1 
H      -2.33340000      -1.62810000      -1.11010000        1 
H       2.67350000      -0.59200000       0.42270000        1 
H       2.59760000       0.71580000       1.67570000        1 
H       4.03350000       1.49010000      -0.35670000        1 
H       1.29400000      -0.13660000       0.16350000        1 
H       0.14820000      -1.48390000      -1.08450000        1 
H      -3.57030000       0.35560000       0.86110000        1 
H      -4.43600000      -0.85180000      -0.26470000        1 
