17
Properties=species:S:1:pos:R:3:Z:I:1 pbc="F F F"
O       2.74800000       1.03880000      -0.07240000        8 
C      -0.49750000      -0.56920000       0.48730000        6 
C      -0.86120000      -1.34170000      -0.77690000        6 
C      -1.43980000       0.57800000       0.72240000        6 
C      -1.44090000       1.65760000      -0.06440000        6 
C       2.12690000      -0.16870000       0.24460000        6 
H       0.72040000      -0.12390000       0.39350000        1 
H      -0.54790000      -1.26100000       1.35530000        1 
H      -0.17150000      -2.20380000      -0.89320000        1 
H      -1.90220000      -1.72390000      -0.70930000        1 
H      -0.76480000      -0.69100000      -1.67140000        1 
H      -2.11700000       0.53970000       1.57050000        1 
H      -2.12420000       2.47590000       0.13800000        1 
H      -0.76180000       1.73610000      -0.90790000        1 
H       2.58380000      -0.98940000      -0.34720000        1 
H       2.25810000      -0.37890000       1.32610000        1 
H       2.19150000       1.42540000      -0.79510000        1 
