25
Properties=species:S:1:pos:R:3:Z:I:1 pbc="F F F"
O      -0.64380000       1.86800000      -0.91540000        8 
C      -1.23080000      -0.26650000       0.03010000        6 
C       2.58050000      -0.34830000       0.54460000        6 
C      -1.59150000       1.21980000      -0.11260000        6 
C      -2.16630000      -0.95240000       1.03150000        6 
C      -1.28420000      -0.98240000      -1.32540000        6 
C       2.77770000       0.39920000      -0.76870000        6 
C       1.18330000      -0.10630000       1.09840000        6 
H      -0.04350000      -0.35090000       0.48000000        1 
H       2.71820000      -1.43670000       0.36930000        1 
H       3.33730000      -0.00870000       1.28410000        1 
H      -2.60470000       1.32420000      -0.56320000        1 
H      -1.60040000       1.69530000       0.89390000        1 
H       3.79570000       0.19590000      -1.16270000        1 
H       2.03110000       0.06190000      -1.51920000        1 
H       2.67020000       1.49350000      -0.60990000        1 
H      -2.08980000      -0.46040000       2.02440000        1 
H      -1.87920000      -2.01840000       1.15390000        1 
H      -3.22060000      -0.90050000       0.68370000        1 
H      -1.00480000      -2.05050000      -1.20350000        1 
H      -2.30530000      -0.92530000      -1.76030000        1 
H      -0.56440000      -0.52060000      -2.03360000        1 
H       1.02950000      -0.71190000       2.01630000        1 
H       1.04350000       0.96810000       1.34400000        1 
H      -0.93760000       2.81380000      -0.97950000        1 
