19
Properties=species:S:1:pos:R:3:Z:I:1 pbc="F F F"
C      -1.86150000       0.50460000      -0.59030000        6 
C      -3.07240000       0.67760000       0.28450000        6 
C      -0.65800000       0.02070000       0.21020000        6 
C       2.62840000      -0.74580000       0.07140000        6 
C      -3.14520000       1.64480000       1.20380000        6 
C       1.61780000      -0.91280000      -0.77310000        6 
C       3.97160000      -1.09290000      -0.30710000        6 
C       5.09810000      -1.38350000      -0.62350000        6 
H      -1.61560000       1.46430000      -1.09330000        1 
H      -2.08620000      -0.24790000      -1.37550000        1 
H      -3.92060000       0.01340000       0.14730000        1 
H      -0.88200000      -0.94410000       0.71350000        1 
H      -0.34550000       0.77840000       0.95960000        1 
H       2.44140000      -0.34340000       1.05780000        1 
H      -2.32280000       2.33780000       1.35320000        1 
H      -4.03800000       1.75010000       1.81140000        1 
H       0.32630000      -0.56850000      -0.38130000        1 
H       1.77730000      -1.31380000      -1.76690000        1 
H       6.08690000      -1.63870000      -0.90130000        1 
