21
Properties=species:S:1:pos:R:3:Z:I:1 pbc="F F F"
O      -1.59510000      -0.44890000      -1.85030000        8 
O       2.76840000       1.65930000       0.41100000        8 
C      -1.59620000      -0.11670000      -0.48650000        6 
C      -0.36410000      -0.74540000       0.19230000        6 
C      -1.59900000       1.40820000      -0.35940000        6 
C      -0.39630000      -0.62360000       1.71510000        6 
C       1.98160000      -0.17780000      -0.83010000        6 
C       2.87210000       0.46630000       0.17870000        6 
H      -2.52620000      -0.50650000      -0.00940000        1 
H       0.74560000      -0.18080000      -0.26990000        1 
H      -0.32480000      -1.82650000      -0.06420000        1 
H      -1.34620000      -1.03340000       2.11930000        1 
H       0.44960000      -1.19860000       2.14680000        1 
H      -0.28510000       0.43550000       2.02560000        1 
H      -2.44730000       1.82960000      -0.93960000        1 
H      -0.65310000       1.83590000      -0.75520000        1 
H      -1.72710000       1.71540000       0.69910000        1 
H       2.14570000       0.28350000      -1.82640000        1 
H       2.19930000      -1.26470000      -0.88910000        1 
H       3.61110000      -0.12370000       0.71100000        1 
H      -1.91300000      -1.38720000      -1.91890000        1 
