21
Properties=species:S:1:pos:R:3:Z:I:1 pbc="F F F"
O      -0.96880000       1.01280000       1.75790000        8 
O       4.03200000      -0.30530000       0.99790000        8 
C      -0.41810000       0.30420000      -0.47350000        6 
C      -0.65930000      -1.18930000      -0.20390000        6 
C      -1.26420000       1.22840000       0.40590000        6 
C      -2.03530000      -1.66130000      -0.67260000        6 
C       2.16810000       0.79350000       0.05400000        6 
C       3.39510000      -0.05570000      -0.01280000        6 
H      -0.53600000      -1.41230000       0.87760000        1 
H       0.11360000      -1.76830000      -0.75330000        1 
H       0.86280000       0.56890000      -0.24350000        1 
H      -0.61770000       0.52990000      -1.54380000        1 
H      -2.34670000       1.06110000       0.21610000        1 
H      -1.02550000       2.28180000       0.13980000        1 
H      -2.10240000      -2.76450000      -0.56600000        1 
H      -2.83800000      -1.20640000      -0.05630000        1 
H      -2.19380000      -1.39970000      -1.74040000        1 
H       1.95950000       1.10980000       1.09840000        1 
H       2.30250000       1.69230000      -0.58290000        1 
H       3.72170000      -0.45440000      -0.96720000        1 
H      -1.54940000       1.63470000       2.26880000        1 
