21
Properties=species:S:1:pos:R:3:Z:I:1 pbc="F F F"
O      -0.69800000      -0.43120000      -1.71250000        8 
O       3.19040000      -1.26260000       1.73210000        8 
C      -1.71250000      -0.20630000      -0.76460000        6 
C      -1.26160000      -0.62160000       0.65140000        6 
C      -2.23820000       1.23630000      -0.83050000        6 
C      -0.02550000       0.12110000       1.16080000        6 
C       2.22940000      -0.33230000      -0.19990000        6 
C       3.38490000      -0.73510000       0.64990000        6 
H      -2.56480000      -0.86750000      -1.03410000        1 
H      -2.09830000      -0.45960000       1.36550000        1 
H      -1.03590000      -1.70980000       0.64800000        1 
H       1.05450000      -0.15900000       0.38890000        1 
H       0.19980000      -0.21380000       2.19530000        1 
H      -0.19820000       1.21630000       1.18560000        1 
H      -1.42830000       1.97080000      -0.64060000        1 
H      -2.65580000       1.43340000      -1.84050000        1 
H      -3.04560000       1.38580000      -0.08240000        1 
H       2.27570000      -0.86810000      -1.17070000        1 
H       2.26150000       0.76240000      -0.37850000        1 
H       4.39960000      -0.56010000       0.30800000        1 
H      -0.03300000       0.30090000      -1.63130000        1 
