17
Properties=species:S:1:pos:R:3:Z:I:1 pbc="F F F"
O       2.30160000       0.32260000       1.63780000        8 
C      -1.70090000       0.94290000      -1.22950000        6 
C       2.31750000      -0.02010000       0.28210000        6 
C      -1.26900000      -0.12630000      -0.26900000        6 
C      -0.06810000      -0.96380000      -0.58850000        6 
C      -1.95130000      -0.33080000       0.86510000        6 
H      -2.73440000       0.73860000      -1.58120000        1 
H      -1.67410000       1.93350000      -0.72800000        1 
H      -1.02680000       0.97480000      -2.11180000        1 
H       1.08390000      -0.50480000      -0.07400000        1 
H       2.54250000       0.87520000      -0.33730000        1 
H       3.07910000      -0.80780000       0.09440000        1 
H       0.71190000      -0.83360000       0.19130000        1 
H      -0.35350000      -2.03420000      -0.66610000        1 
H      -2.82280000       0.27120000       1.10520000        1 
H      -1.64580000      -1.10230000       1.56590000        1 
H       3.21000000       0.66500000       1.84370000        1 
