24
Properties=species:S:1:pos:R:3:Z:I:1 pbc="F F F"
C      -1.58690000       0.35960000      -0.32730000        6 
C       2.33800000       0.18950000       0.34070000        6 
C      -2.59410000       1.50220000      -0.49180000        6 
C      -2.20170000      -0.97510000      -0.75460000        6 
C       1.19480000      -0.81900000       0.32630000        6 
C       3.67000000      -0.47610000       0.00860000        6 
C      -1.09690000       0.27330000       1.11790000        6 
H      -0.70980000       0.56480000      -0.97920000        1 
H       2.40030000       0.65570000       1.34730000        1 
H       2.12960000       0.98770000      -0.40360000        1 
H      -2.91700000       1.57710000      -1.55220000        1 
H      -2.12680000       2.46790000      -0.20330000        1 
H      -3.48920000       1.33210000       0.14470000        1 
H      -3.08890000      -1.21740000      -0.13030000        1 
H      -1.45440000      -1.79030000      -0.64790000        1 
H      -2.51450000      -0.92830000      -1.81960000        1 
H       0.05770000      -0.19750000       0.61990000        1 
H       1.09930000      -1.28070000      -0.67970000        1 
H       1.37150000      -1.61450000       1.08120000        1 
H       3.90450000      -1.26400000       0.75580000        1 
H       4.47960000       0.28350000       0.02750000        1 
H       3.63230000      -0.93030000      -1.00450000        1 
H      -1.94170000       0.09990000       1.81900000        1 
H      -0.55580000       1.19990000       1.40510000        1 
