11
Properties=species:S:1:pos:R:3:Z:I:1 pbc="F F F"
O       2.89060000       0.06070000      -0.02730000        8 
C      -0.77030000      -0.47660000      -0.20210000        6 
C       0.35840000       0.50250000      -0.14570000        6 
C      -2.00120000      -0.13760000       0.18700000        6 
H      -0.57850000      -1.48030000      -0.56740000        1 
H       0.52690000       0.83610000       0.90010000        1 
H       0.14110000       1.37840000      -0.79280000        1 
H      -2.21450000       0.86140000       0.55570000        1 
H      -2.80580000      -0.86410000       0.13770000        1 
H       1.44750000       0.21570000      -0.24490000        1 
H       3.00600000      -0.89630000       0.19960000        1 
