22
Properties=species:S:1:pos:R:3:Z:I:1 pbc="F F F"
C       1.45250000       0.47430000      -0.29140000        6 
C       1.30810000      -0.95100000       0.24810000        6 
C       2.53860000       1.23980000       0.45870000        6 
C      -2.32460000      -0.82410000      -0.37420000        6 
C      -2.54510000       0.40750000       0.44670000        6 
C       0.20950000      -1.69700000      -0.49650000        6 
C      -1.91860000       1.54940000       0.15610000        6 
H       1.71620000       0.44190000      -1.37130000        1 
H       0.48750000       1.01570000      -0.18040000        1 
H       2.26700000      -1.50150000       0.13060000        1 
H       1.04630000      -0.91690000       1.32790000        1 
H       2.62140000       2.26740000       0.04620000        1 
H       2.28600000       1.30980000       1.53830000        1 
H       3.51920000       0.73070000       0.34340000        1 
H      -1.09540000      -1.14570000      -0.34640000        1 
H      -2.63480000      -0.64040000      -1.42460000        1 
H      -2.92590000      -1.66160000       0.03720000        1 
H      -3.22390000       0.37010000       1.29360000        1 
H       0.06530000      -2.70370000      -0.05070000        1 
H       0.47450000      -1.80920000      -1.56950000        1 
H      -2.08970000       2.43250000       0.76320000        1 
H      -1.23410000       1.61210000      -0.68470000        1 
