19
Properties=species:S:1:pos:R:3:Z:I:1 pbc="F F F"
C      -2.23040000      -1.48340000       0.37790000        6 
C      -1.89510000      -0.10230000      -0.10940000        6 
C       3.04490000       0.96720000      -0.36630000        6 
C      -0.51700000       0.20520000      -0.60680000        6 
C      -2.82360000       0.86030000      -0.10210000        6 
C       1.88080000       1.25120000      -0.93490000        6 
C       3.11830000      -0.00080000       0.69220000        6 
C       3.18100000      -0.81320000       1.58080000        6 
H      -1.34750000      -2.15290000       0.30210000        1 
H      -2.55160000      -1.44060000       1.44010000        1 
H      -3.05160000      -1.91040000      -0.23580000        1 
H       3.94710000       1.46450000      -0.69800000        1 
H      -0.27650000      -0.43580000      -1.48060000        1 
H       0.22530000       0.03570000       0.20100000        1 
H      -2.58940000       1.86130000      -0.45250000        1 
H      -3.82950000       0.65880000       0.25460000        1 
H       0.65010000       0.58060000      -0.49090000        1 
H       1.82860000       1.98100000      -1.73220000        1 
H       3.23590000      -1.52640000       2.36080000        1 
