17
Properties=species:S:1:pos:R:3:Z:I:1 pbc="F F F"
O       1.51070000       1.14230000       1.79710000        8 
C      -1.23740000       0.40420000      -1.07800000        6 
C      -2.66250000       0.72740000      -0.64560000        6 
C       2.85790000      -0.63920000       1.04830000        6 
C      -0.60110000      -0.60210000      -0.12920000        6 
C       1.61890000       0.19250000       1.03870000        6 
H      -1.24560000      -0.01090000      -2.10890000        1 
H      -0.63450000       1.33730000      -1.07520000        1 
H      -3.10130000       1.47420000      -1.34050000        1 
H      -3.28970000      -0.18930000      -0.66710000        1 
H      -2.66620000       1.15110000       0.38150000        1 
H       2.76750000      -1.44850000       0.29450000        1 
H       3.73640000      -0.00750000       0.80010000        1 
H       2.99920000      -1.09130000       2.05230000        1 
H      -1.14850000      -1.56820000      -0.16350000        1 
H       0.45820000      -0.77420000      -0.41440000        1 
H       0.63810000      -0.09780000       0.21000000        1 
