11
Properties=species:S:1:pos:R:3:Z:I:1 pbc="F F F"
O       1.72220000       0.12260000      -0.87350000        8 
C      -1.12080000      -0.39140000       0.03040000        6 
C      -1.80420000       0.74570000      -0.06600000        6 
C       1.53200000      -0.41700000       0.39820000        6 
H       0.27840000      -0.36500000       0.39440000        1 
H      -1.60800000      -1.34150000      -0.16300000        1 
H      -2.85450000       0.73240000      -0.33880000        1 
H      -1.31160000       1.69210000       0.12850000        1 
H       1.18960000      -1.46830000       0.30590000        1 
H       2.48840000      -0.39020000       0.96130000        1 
H       1.48850000       1.08050000      -0.77730000        1 
