23
Properties=species:S:1:pos:R:3:Z:I:1 pbc="F F F"
C       1.51120000      -0.50760000      -0.27610000        6 
C       1.71280000      -1.95310000       0.15950000        6 
C      -3.38610000       1.09350000       0.41060000        6 
C      -2.21880000       0.32260000      -0.13740000        6 
C       2.49010000       0.39490000       0.42320000        6 
C      -0.93480000       0.25680000       0.62960000        6 
C      -2.31830000      -0.30910000      -1.31200000        6 
C       3.38690000       1.12250000      -0.24860000        6 
H       0.28240000      -0.12850000       0.04060000        1 
H       1.61880000      -0.44330000      -1.38130000        1 
H       2.73680000      -2.29530000      -0.10300000        1 
H       0.97540000      -2.60140000      -0.35850000        1 
H       1.56130000      -2.04930000       1.25570000        1 
H      -4.25260000       0.41380000       0.55420000        1 
H      -3.66860000       1.90240000      -0.29590000        1 
H      -3.13060000       1.55220000       1.38940000        1 
H       2.46140000       0.45990000       1.50690000        1 
H      -1.10690000      -0.21590000       1.61920000        1 
H      -0.52090000       1.27780000       0.76620000        1 
H      -1.47920000      -0.86860000      -1.71530000        1 
H      -3.24050000      -0.27440000      -1.88480000        1 
H       3.44450000       1.08510000      -1.33220000        1 
H       4.07590000       1.76500000       0.29000000        1 
