25
Properties=species:S:1:pos:R:3:Z:I:1 pbc="F F F"
C      -1.67500000      -0.37790000      -0.52330000        6 
C       1.79320000       0.54050000       0.72370000        6 
C      -2.58480000       0.01330000      -1.69220000        6 
C      -2.50060000      -0.72550000       0.71750000        6 
C       2.72670000       1.70060000       0.39670000        6 
C       2.43620000      -0.78340000       0.41670000        6 
C      -0.69210000       0.74750000      -0.20170000        6 
C       1.77730000      -1.92600000       0.62070000        6 
H      -1.08950000      -1.27660000      -0.81630000        1 
H       0.75040000       0.65830000       0.05020000        1 
H       1.52700000       0.58100000       1.80220000        1 
H      -3.27120000      -0.82460000      -1.93910000        1 
H      -3.19000000       0.90970000      -1.43660000        1 
H      -1.97430000       0.23740000      -2.59300000        1 
H      -3.10830000       0.14650000       1.04270000        1 
H      -3.18140000      -1.57540000       0.49790000        1 
H      -1.82880000      -1.02520000       1.55030000        1 
H       3.65660000       1.62990000       1.00080000        1 
H       2.98660000       1.69150000      -0.68340000        1 
H       2.22080000       2.66030000       0.63210000        1 
H       3.44810000      -0.82330000       0.02180000        1 
H      -0.01660000       0.93700000      -1.06300000        1 
H      -1.22710000       1.68350000       0.06820000        1 
H       0.76460000      -1.92390000       1.01310000        1 
H       2.25220000      -2.87510000       0.39420000        1 
