23
Properties=species:S:1:pos:R:3:Z:I:1 pbc="F F F"
O       4.25110000       0.22350000       0.38070000        8 
C      -2.01980000      -0.38400000       0.02790000        6 
C       2.10320000       0.65900000      -0.56180000        6 
C      -2.07180000      -0.24400000       1.55180000        6 
C      -1.81650000       0.98340000      -0.63060000        6 
C       1.63390000      -0.64500000       0.08040000        6 
C      -0.89380000      -1.33540000      -0.37550000        6 
C       3.55130000       0.96650000      -0.29070000        6 
H      -2.98660000      -0.80740000      -0.32340000        1 
H       1.95160000       0.59380000      -1.65990000        1 
H       1.48240000       1.49420000      -0.17460000        1 
H      -2.89970000       0.43600000       1.84590000        1 
H      -1.11440000       0.16530000       1.94090000        1 
H      -2.25590000      -1.23400000       2.02120000        1 
H      -2.64290000       1.67060000      -0.34930000        1 
H      -1.81630000       0.87950000      -1.73670000        1 
H      -0.85090000       1.43240000      -0.31200000        1 
H       0.35140000      -0.83840000      -0.20750000        1 
H       1.74640000      -0.59460000       1.18460000        1 
H       2.21980000      -1.50280000      -0.31360000        1 
H      -0.86130000      -1.45520000      -1.47960000        1 
H      -1.04440000      -2.33520000       0.08510000        1 
H       3.98330000       1.87210000      -0.70330000        1 
