17
Properties=species:S:1:pos:R:3:Z:I:1 pbc="F F F"
O      -1.79660000       1.04670000       1.37330000        8 
C      -1.70580000      -0.14040000       0.63770000        6 
C      -2.31870000       0.04800000      -0.74260000        6 
C       1.85620000       0.37110000      -0.22160000        6 
C       0.90460000      -0.69890000       0.20890000        6 
C       3.16550000       0.13290000      -0.32470000        6 
H      -0.40080000      -0.52130000       0.51190000        1 
H      -2.25460000      -0.94130000       1.17670000        1 
H      -1.76600000       0.83460000      -1.29820000        1 
H      -3.38490000       0.34470000      -0.64920000        1 
H      -2.25590000      -0.90390000      -1.31020000        1 
H       1.46880000       1.35790000      -0.45330000        1 
H       0.93250000      -1.54910000      -0.50490000        1 
H       1.15940000      -1.05270000       1.23020000        1 
H       3.57370000      -0.84750000      -0.09770000        1 
H       3.83830000       0.92410000      -0.63910000        1 
H      -1.01570000       1.59520000       1.10280000        1 
