28
Properties=species:S:1:pos:R:3:Z:I:1 pbc="F F F"
O      -0.58590000       0.64860000      -1.33300000        8 
C      -1.42160000       0.38900000      -0.23590000        6 
C      -2.89430000       0.55540000      -0.66190000        6 
C       2.56460000       0.07940000      -0.80020000        6 
C       2.43240000      -1.22490000      -0.00360000        6 
C      -1.12820000      -1.02440000       0.26920000        6 
C       3.24720000       1.18980000      -0.00190000        6 
C      -3.86350000       0.50340000       0.51940000        6 
C       1.38620000      -1.11510000       1.10040000        6 
H      -1.18670000       1.10420000       0.58700000        1 
H       1.56200000       0.42370000      -1.13580000        1 
H       3.17370000      -0.12240000      -1.70790000        1 
H      -3.16980000      -0.22760000      -1.40180000        1 
H      -3.01400000       1.54280000      -1.15880000        1 
H       2.11640000      -2.03030000      -0.70090000        1 
H       3.41280000      -1.51680000       0.43190000        1 
H       2.61700000       1.50070000       0.85700000        1 
H       4.23700000       0.84880000       0.36960000        1 
H       3.40130000       2.07340000      -0.65640000        1 
H      -4.88740000       0.74960000       0.16710000        1 
H      -3.57060000       1.24180000       1.29580000        1 
H      -3.88800000      -0.51280000       0.96420000        1 
H       0.17370000      -1.14570000       0.50500000        1 
H      -1.42310000      -1.78090000      -0.48930000        1 
H      -1.66700000      -1.22440000       1.21850000        1 
H       1.18880000      -2.11800000       1.53420000        1 
H       1.73800000      -0.44230000       1.90990000        1 
H      -0.55100000       1.63510000      -1.44180000        1 
