12
Properties=species:S:1:pos:R:3:Z:I:1 pbc="F F F"
O      -2.14590000      -0.18200000       1.09830000        8 
O       2.11380000      -0.62420000       1.16190000        8 
C      -1.47740000      -0.62380000      -0.04630000        6 
C       0.86470000       0.66720000      -0.35690000        6 
C       2.05150000      -0.14380000       0.04230000        6 
H      -0.40070000       0.11590000      -0.25640000        1 
H      -1.16700000      -1.67930000       0.09640000        1 
H      -2.15140000      -0.56250000      -0.92770000        1 
H       0.77930000       1.55810000       0.29990000        1 
H       0.96870000       0.99780000      -1.41140000        1 
H       2.86000000      -0.31200000      -0.66160000        1 
H      -2.29560000       0.78870000       0.96150000        1 
