14
Properties=species:S:1:pos:R:3:Z:I:1 pbc="F F F"
O       2.90850000       0.42430000      -0.80370000        8 
C      -1.82640000       0.75680000       0.17440000        6 
C      -1.56740000      -0.71620000       0.08680000        6 
C      -0.33270000      -1.20540000      -0.04520000        6 
C       1.93070000       0.18090000       0.16020000        6 
H      -0.88700000       1.34710000       0.11600000        1 
H      -2.49150000       1.06140000      -0.66020000        1 
H      -2.33050000       0.98280000       1.13690000        1 
H      -2.40940000      -1.40020000       0.13230000        1 
H       0.81340000      -0.32590000      -0.10950000        1 
H      -0.17710000      -2.27760000      -0.10600000        1 
H       2.33960000      -0.49600000       0.93840000        1 
H       1.62430000       1.13880000       0.63040000        1 
H       2.40560000       0.52920000      -1.65080000        1 
