26
Properties=species:S:1:pos:R:3:Z:I:1 pbc="F F F"
O       2.72090000      -1.83370000      -1.21090000        8 
C       2.50160000      -0.94840000      -0.14370000        6 
C       1.02250000      -0.51290000      -0.13580000        6 
C       3.44760000       0.24470000      -0.30120000        6 
C       0.64110000       0.27540000       1.11580000        6 
C      -2.80420000      -0.91750000      -0.19950000        6 
C      -2.60820000       0.56550000      -0.07890000        6 
C      -1.87850000       1.11920000       1.10710000        6 
C      -3.08170000       1.38820000      -1.02360000        6 
H       2.74560000      -1.45860000       0.81790000        1 
H       0.38000000      -1.41900000      -0.17260000        1 
H       0.79570000       0.09570000      -1.03800000        1 
H      -0.74870000       0.48840000       1.11770000        1 
H       1.14270000       1.26510000       1.12690000        1 
H       0.91360000      -0.29080000       2.03170000        1 
H       3.39710000       0.90760000       0.58730000        1 
H       4.49340000      -0.11760000      -0.39540000        1 
H       3.19220000       0.82880000      -1.21120000        1 
H      -2.35110000      -1.44600000       0.66610000        1 
H      -2.32370000      -1.28680000      -1.13020000        1 
H      -3.88910000      -1.15330000      -0.22940000        1 
H      -0.96760000       1.66380000       0.78010000        1 
H      -2.54040000       1.79800000       1.68530000        1 
H      -3.61190000       0.99610000      -1.88660000        1 
H      -2.94450000       2.46260000      -0.94440000        1 
H       2.35550000      -2.71470000      -0.93450000        1 
