8
Properties=species:S:1:pos:R:3:Z:I:1 pbc="F F F"
O      -2.75890000       1.12990000       0.09270000        8 
C      -0.85780000      -0.52810000      -0.20430000        6 
C      -1.83270000       0.32210000      -0.05200000        6 
C       1.64410000       0.16730000       0.14300000        6 
H       0.36530000      -0.10650000      -0.26480000        1 
H      -1.06960000      -1.58580000      -0.28020000        1 
H       1.98240000       0.84350000       0.95480000        1 
H       2.52710000      -0.24240000      -0.38920000        1 
