24
Properties=species:S:1:pos:R:3:Z:I:1 pbc="F F F"
O      -1.92850000       2.33590000      -0.89040000        8 
O       1.89100000       0.03220000      -1.35770000        8 
C      -1.23060000       0.59700000       0.64630000        6 
C      -0.86700000      -0.39910000      -0.46560000        6 
C      -2.31840000       1.60020000       0.23800000        6 
C      -1.98760000      -1.39410000      -0.75980000        6 
C       3.68310000      -0.04710000       0.16820000        6 
C       2.29310000      -0.37820000      -0.28100000        6 
C       1.38820000      -1.20600000       0.57210000        6 
H       0.19970000      -1.08540000      -0.07200000        1 
H      -0.59240000       0.14140000      -1.39700000        1 
H      -1.56380000       0.04210000       1.54990000        1 
H      -0.31410000       1.16010000       0.92540000        1 
H      -2.52400000       2.28790000       1.08940000        1 
H      -3.26600000       1.06850000       0.01430000        1 
H      -1.61790000      -2.15990000      -1.47310000        1 
H      -2.85780000      -0.88250000      -1.22050000        1 
H      -2.30670000      -1.90570000       0.17280000        1 
H       3.89280000      -0.49300000       1.16360000        1 
H       3.79960000       1.05470000       0.23800000        1 
H       4.41610000      -0.44590000      -0.56410000        1 
H       1.83660000      -2.20740000       0.74050000        1 
H       1.21780000      -0.70100000       1.54580000        1 
H      -1.24320000       2.98520000      -0.58300000        1 
