22
Properties=species:S:1:pos:R:3:Z:I:1 pbc="F F F"
O      -2.41350000      -0.86180000       1.28120000        8 
C       2.15610000      -0.50490000       0.10480000        6 
C       1.36180000       0.80020000       0.00850000        6 
C      -2.27750000      -0.64300000      -0.09630000        6 
C       3.49240000      -0.28570000       0.80810000        6 
C      -3.24390000       0.43900000      -0.55950000        6 
C       0.02390000       0.56350000      -0.67860000        6 
H       2.34810000      -0.90360000      -0.91540000        1 
H       1.56890000      -1.25910000       0.67320000        1 
H       1.17230000       1.19830000       1.02880000        1 
H       1.93920000       1.55560000      -0.56790000        1 
H      -1.07280000      -0.25730000      -0.33820000        1 
H      -2.45990000      -1.58460000      -0.66230000        1 
H       3.32820000       0.08840000       1.84120000        1 
H       4.10870000       0.44780000       0.24570000        1 
H       4.04590000      -1.24680000       0.86250000        1 
H      -4.29200000       0.11780000      -0.38120000        1 
H      -3.04980000       1.38170000      -0.00570000        1 
H      -3.10310000       0.62370000      -1.64500000        1 
H       0.17910000       0.23020000      -1.72700000        1 
H      -0.57270000       1.50000000      -0.67970000        1 
H      -3.23930000      -1.39950000       1.40290000        1 
