13
Properties=species:S:1:pos:R:3:Z:I:1 pbc="F F F"
O       0.73260000       0.41920000      -1.77090000        8 
O      -3.57740000      -0.79220000       0.07680000        8 
C       2.30410000       0.06230000      -0.05360000        6 
C       0.91480000       0.07930000      -0.61310000        6 
C      -0.25540000      -0.31490000       0.22770000        6 
C      -2.84150000       0.18010000       0.08000000        6 
H       2.74010000       1.08180000      -0.10800000        1 
H       2.29850000      -0.26850000       1.00670000        1 
H       2.93450000      -0.63610000      -0.64290000        1 
H      -0.14100000      -1.36510000       0.56880000        1 
H      -0.33620000       0.35940000       1.10570000        1 
H      -1.52200000       0.02520000      -0.12680000        1 
H      -3.25120000       1.16970000       0.24950000        1 
