28
Properties=species:S:1:pos:R:3:Z:I:1 pbc="F F F"
O      -3.52720000      -0.36640000       1.78880000        8 
C      -2.28500000       0.13930000       1.37060000        6 
C      -1.50010000      -0.94190000       0.60940000        6 
C       2.58710000       1.10990000      -1.73950000        6 
C       2.04250000       1.04320000      -0.30530000        6 
C      -2.52530000       1.35010000       0.47090000        6 
C       3.17780000      -0.21990000      -2.20690000        6 
C      -1.11310000      -2.11170000       1.51070000        6 
C       0.77720000       0.19750000      -0.19540000        6 
H      -1.68490000       0.48460000       2.24610000        1 
H       3.38830000       1.87960000      -1.77570000        1 
H       1.78370000       1.42720000      -2.43940000        1 
H      -0.40870000      -0.42370000       0.12960000        1 
H      -2.10690000      -1.32280000      -0.24130000        1 
H       1.79670000       2.07360000       0.02930000        1 
H       2.81710000       0.64160000       0.38290000        1 
H       3.95700000      -0.56980000      -1.49680000        1 
H       2.38540000      -0.99160000      -2.29640000        1 
H       3.64480000      -0.08550000      -3.20530000        1 
H      -2.01880000      -2.63890000       1.87750000        1 
H      -0.49670000      -2.83210000       0.93330000        1 
H      -0.51800000      -1.75110000       2.37620000        1 
H      -3.11110000       1.05810000      -0.42710000        1 
H      -3.09220000       2.12550000       1.02890000        1 
H      -1.55770000       1.78960000       0.14700000        1 
H      -0.00680000       0.55910000      -0.89430000        1 
H       0.99150000      -0.87660000      -0.37450000        1 
H      -3.39670000      -0.74700000       2.69640000        1 
