18
Properties=species:S:1:pos:R:3:Z:I:1 pbc="F F F"
C      -0.36720000      -1.57900000      -0.22570000        6 
C       1.50980000       0.93590000       0.57440000        6 
C      -1.84430000      -1.30390000      -0.25220000        6 
C       0.35100000      -0.65350000      -1.19560000        6 
C      -2.50910000      -0.89800000       0.83360000        6 
C       1.62790000       2.36610000       0.28930000        6 
C       1.72500000       3.54430000       0.05420000        6 
H       0.05320000      -1.42740000       0.79250000        1 
H      -0.18960000      -2.63470000      -0.52160000        1 
H       0.83060000       0.35870000      -0.37550000        1 
H       0.98630000       0.79330000       1.54220000        1 
H       2.52190000       0.48500000       0.63160000        1 
H      -2.38840000      -1.44620000      -1.18170000        1 
H       0.01320000      -0.84270000      -2.23710000        1 
H       1.44760000      -0.81740000      -1.13450000        1 
H      -2.00130000      -0.74690000       1.78120000        1 
H      -3.57670000      -0.71230000       0.77690000        1 
H       1.81030000       4.57880000      -0.15220000        1 
