26
Properties=species:S:1:pos:R:3:Z:I:1 pbc="F F F"
O      -0.87670000      -1.77430000       0.79360000        8 
C      -2.16630000      -0.03760000      -0.28890000        6 
C      -0.79320000      -0.70540000      -0.10750000        6 
C      -2.03690000       1.20830000      -1.17110000        6 
C      -3.18250000      -1.01580000      -0.89260000        6 
C       2.86080000      -1.02200000       0.30920000        6 
C       2.59630000       0.40650000       0.68580000        6 
C       1.18260000       0.87930000       0.83960000        6 
C       3.61550000       1.25260000       0.88320000        6 
H      -2.53750000       0.28450000       0.70900000        1 
H       0.10920000       0.20950000       0.35360000        1 
H      -0.42200000      -1.08690000      -1.08320000        1 
H      -1.33370000       1.93410000      -0.70980000        1 
H      -3.02400000       1.70700000      -1.27750000        1 
H      -1.66130000       0.93690000      -2.18140000        1 
H      -3.31580000      -1.89450000      -0.22650000        1 
H      -4.17030000      -0.52000000      -1.00570000        1 
H      -2.84280000      -1.36910000      -1.89000000        1 
H       3.42080000      -1.06170000      -0.64910000        1 
H       3.45920000      -1.51670000       1.10340000        1 
H       1.90790000      -1.57920000       0.18540000        1 
H       0.96670000       1.69300000       0.11530000        1 
H       1.00540000       1.23580000       1.87630000        1 
H       3.43320000       2.28790000       1.15590000        1 
H       4.64330000       0.91910000       0.77400000        1 
H      -0.83790000      -1.37140000       1.69900000        1 
