28
Properties=species:S:1:pos:R:3:Z:I:1 pbc="F F F"
O      -1.42580000       0.22580000      -1.27470000        8 
C       1.68330000       0.29690000      -0.54240000        6 
C      -2.35510000      -0.33140000      -0.38190000        6 
C      -2.17080000       0.24930000       1.03550000        6 
C       2.22110000      -0.64290000       0.53910000        6 
C       2.82080000       0.82160000      -1.42450000        6 
C      -2.22920000      -1.85630000      -0.40550000        6 
C      -0.75960000       0.06220000       1.59450000        6 
C       0.91840000       1.45360000       0.10010000        6 
H       0.97520000      -0.27470000      -1.18140000        1 
H      -3.38760000      -0.08280000      -0.72170000        1 
H      -2.39300000       1.33790000       1.00540000        1 
H      -2.90270000      -0.21850000       1.72950000        1 
H       2.94020000      -0.11200000       1.19970000        1 
H       1.38350000      -1.03000000       1.15820000        1 
H       2.73580000      -1.50920000       0.07130000        1 
H       2.41380000       1.48100000      -2.22060000        1 
H       3.55310000       1.39880000      -0.81970000        1 
H       3.34760000      -0.02590000      -1.91280000        1 
H       0.14290000       0.59080000       0.77510000        1 
H      -0.53650000      -1.01340000       1.75050000        1 
H      -0.68280000       0.57510000       2.57630000        1 
H      -2.91370000      -2.31400000       0.34010000        1 
H      -1.18700000      -2.17210000      -0.19040000        1 
H      -2.50420000      -2.23620000      -1.41240000        1 
H       0.43540000       2.08440000      -0.67630000        1 
H       1.58890000       2.07950000       0.72770000        1 
H      -1.71180000       1.16250000      -1.43840000        1 
