14
Properties=species:S:1:pos:R:3:Z:I:1 pbc="F F F"
O       2.53120000      -0.32620000       0.80230000        8 
C       1.94290000       0.46580000      -0.18670000        6 
C      -1.51430000      -0.52380000       0.22980000        6 
C      -0.45800000      -0.61770000      -0.82390000        6 
C      -2.08130000       0.64640000       0.52670000        6 
H       0.72910000      -0.06140000      -0.55010000        1 
H       2.60570000       0.49250000      -1.07600000        1 
H       1.80300000       1.50180000       0.19020000        1 
H      -1.81450000      -1.41770000       0.76860000        1 
H      -0.07000000      -1.65620000      -0.88050000        1 
H      -0.87910000      -0.33130000      -1.81070000        1 
H      -1.79250000       1.55470000       0.00580000        1 
H      -2.84250000       0.70100000       1.29810000        1 
H       1.84030000      -0.42800000       1.50620000        1 
