16
Properties=species:S:1:pos:R:3:Z:I:1 pbc="F F F"
C      -1.77190000      -0.69600000       0.04630000        6 
C      -2.14190000       0.67390000      -0.49300000        6 
C       1.82260000       0.25160000      -0.15910000        6 
C       0.88280000      -0.69180000       0.52050000        6 
C       2.90660000       0.70790000       0.47010000        6 
H      -0.39280000      -0.73700000       0.31720000        1 
H      -2.02010000      -1.47630000      -0.70370000        1 
H      -2.33410000      -0.89740000       0.98240000        1 
H      -1.57570000       0.87310000      -1.42680000        1 
H      -3.23030000       0.71350000      -0.70930000        1 
H      -1.88950000       1.45150000       0.25780000        1 
H       1.61290000       0.57900000      -1.17320000        1 
H       1.40460000      -1.64290000       0.75760000        1 
H       0.01680000      -0.90590000      -0.14020000        1 
H       3.13310000       0.39960000       1.48660000        1 
H       3.57690000       1.39710000      -0.03310000        1 
