20
Properties=species:S:1:pos:R:3:Z:I:1 pbc="F F F"
C      -2.96260000       0.04820000      -1.82320000        6 
C       3.49360000      -0.25490000       1.75240000        6 
C      -1.92420000       0.33240000      -0.77190000        6 
C       2.32520000      -0.02630000       0.84490000        6 
C      -0.50910000      -0.11810000      -0.98660000        6 
C      -2.24630000       0.97250000       0.36000000        6 
C       1.31920000      -0.89990000       0.77960000        6 
H      -2.66220000       0.52750000      -2.77850000        1 
H      -3.96330000       0.43590000      -1.53460000        1 
H      -3.04200000      -1.04820000      -1.97860000        1 
H       4.00690000      -1.20100000       1.47890000        1 
H       3.14940000      -0.31260000       2.80670000        1 
H       4.21300000       0.58490000       1.65510000        1 
H       2.29310000       0.86560000       0.22740000        1 
H      -0.41040000      -0.70040000      -1.92720000        1 
H       0.16750000       0.76150000      -1.03050000        1 
H      -1.49420000       1.17080000       1.11810000        1 
H      -3.26230000       1.30700000       0.54650000        1 
H       0.18740000      -0.64330000      -0.12300000        1 
H       1.32150000      -1.80180000       1.38460000        1 
