14
Properties=species:S:1:pos:R:3:Z:I:1 pbc="F F F"
C      -1.88240000      -0.66520000      -0.11340000        6 
C      -0.83060000       0.25950000       0.40980000        6 
C      -1.87990000      -1.05010000      -1.39060000        6 
C       1.80880000       0.01950000       0.37180000        6 
C       2.60920000       1.04790000       0.63800000        6 
H      -2.65030000      -1.03790000       0.55800000        1 
H      -0.96780000       0.41120000       1.50080000        1 
H      -0.89660000       1.24070000      -0.10610000        1 
H      -1.11820000      -0.69580000      -2.07890000        1 
H      -2.64590000      -1.72660000      -1.75540000        1 
H       0.36960000       0.24200000       0.16930000        1 
H       2.21230000      -0.98550000       0.30280000        1 
H       2.19960000       2.04990000       0.70550000        1 
H       3.67230000       0.89040000       0.78840000        1 
