13
Properties=species:S:1:pos:R:3:Z:I:1 pbc="F F F"
C      -1.49480000      -0.39700000       0.38900000        6 
C      -0.18550000       0.16800000      -0.09190000        6 
C       0.88440000      -0.75940000      -0.58860000        6 
C       0.04440000       1.48750000      -0.07280000        6 
H      -2.19190000       0.39950000       0.72730000        1 
H      -1.97910000      -0.96090000      -0.43560000        1 
H      -1.31050000      -1.08710000       1.23880000        1 
H       0.58230000      -1.82190000      -0.47180000        1 
H       1.09590000      -0.55690000      -1.65980000        1 
H      -0.70810000       2.18370000       0.28490000        1 
H       0.99300000       1.89000000      -0.41620000        1 
H       2.52770000      -0.03510000       0.76260000        1 
H       1.74230000      -0.51040000       0.33400000        1 
