26
Properties=species:S:1:pos:R:3:Z:I:1 pbc="F F F"
O      -3.29000000      -1.41840000      -0.72000000        8 
C      -2.19430000      -0.59600000      -0.40590000        6 
C      -2.58890000       0.41380000       0.69170000        6 
C      -0.98820000      -1.45660000      -0.00880000        6 
C      -1.53820000       1.50370000       0.90310000        6 
C       2.62150000      -0.05440000      -1.77810000        6 
C       2.51210000       0.20490000      -0.30390000        6 
C       1.33630000      -0.33170000       0.45440000        6 
C       3.45790000       0.91060000       0.32950000        6 
H      -1.92420000      -0.03500000      -1.32660000        1 
H      -3.54100000       0.90530000       0.39490000        1 
H      -2.76830000      -0.11470000       1.65340000        1 
H      -1.93720000       2.26960000       1.60110000        1 
H      -1.29010000       1.99890000      -0.05970000        1 
H      -0.61700000       1.07780000       1.35110000        1 
H       0.18220000      -0.67820000       0.02500000        1 
H      -0.83770000      -2.25960000      -0.76130000        1 
H      -1.14930000      -1.92660000       0.98490000        1 
H       3.55400000      -0.61770000      -1.99360000        1 
H       1.75650000      -0.65130000      -2.13780000        1 
H       2.64020000       0.90920000      -2.33000000        1 
H       1.67490000      -1.03400000       1.24520000        1 
H       0.75660000       0.50030000       0.90720000        1 
H       4.31360000       1.30350000      -0.21170000        1 
H       3.38680000       1.10300000       1.39600000        1 
H      -3.52830000      -1.92620000       0.10000000        1 
