17
Properties=species:S:1:pos:R:3:Z:I:1 pbc="F F F"
C      -2.13520000       1.14170000      -0.87870000        6 
C      -1.32050000       0.27140000       0.03570000        6 
C      -0.22200000      -0.58090000      -0.51940000        6 
C      -1.57040000       0.25200000       1.34940000        6 
C       2.14650000      -0.92460000       0.68260000        6 
C       3.21220000      -0.56460000      -0.02720000        6 
H      -2.03000000       2.20580000      -0.57890000        1 
H      -1.79460000       1.03540000      -1.93060000        1 
H      -3.20530000       0.84960000      -0.82240000        1 
H      -0.63560000      -1.30390000      -1.25320000        1 
H       0.54360000       0.05690000      -1.00880000        1 
H      -2.36260000       0.86240000       1.77300000        1 
H      -0.98610000      -0.37430000       2.01730000        1 
H       0.79740000      -0.73630000       0.12910000        1 
H       2.26670000      -1.35750000       1.67030000        1 
H       4.21060000      -0.70090000       0.37560000        1 
H       3.08520000      -0.13240000      -1.01380000        1 
