23
Properties=species:S:1:pos:R:3:Z:I:1 pbc="F F F"
O       0.07060000      -0.30750000       0.19150000        8 
C      -2.20150000      -0.19960000      -0.63400000        6 
C      -0.71410000      -0.40870000      -0.96220000        6 
C      -2.45430000       1.20260000      -0.06600000        6 
C      -2.71560000      -1.27700000       0.32910000        6 
C       3.23700000       0.72120000       0.03640000        6 
C       2.50350000      -0.58000000      -0.03240000        6 
C       4.00370000       1.02930000       1.08460000        6 
H      -2.77410000      -0.29050000      -1.58350000        1 
H      -0.56890000      -1.41210000      -1.41840000        1 
H      -0.38270000       0.35430000      -1.69980000        1 
H      -3.54210000       1.35700000       0.09820000        1 
H      -2.10020000       1.97520000      -0.78150000        1 
H      -1.92520000       1.33920000       0.90150000        1 
H      -2.19440000      -1.21410000       1.30830000        1 
H      -3.80620000      -1.14880000       0.49750000        1 
H      -2.54940000      -2.28720000      -0.10230000        1 
H       3.14000000       1.42400000      -0.78470000        1 
H       1.78890000      -0.66440000       0.81340000        1 
H       3.22040000      -1.42780000      -0.00920000        1 
H       4.52730000       1.97940000       1.11390000        1 
H       4.11440000       0.34030000       1.91660000        1 
H       1.32310000      -0.50470000      -0.21700000        1 
