24
Properties=species:S:1:pos:R:3:Z:I:1 pbc="F F F"
O       0.72930000      -2.02830000      -2.06180000        8 
O      -2.03730000      -1.31980000       1.40030000        8 
C       1.55270000      -0.95620000      -0.07510000        6 
C       1.51560000       0.31480000       0.78590000        6 
C       0.75580000      -0.80870000      -1.37490000        6 
C       2.32510000       1.46180000       0.18160000        6 
C      -2.64870000       0.95430000       1.26710000        6 
C      -2.15700000      -0.33660000       0.68630000        6 
C      -1.80370000      -0.43540000      -0.76450000        6 
H       1.94360000       0.07500000       1.78340000        1 
H       0.46460000       0.64180000       0.94180000        1 
H       1.11170000      -1.78790000       0.51620000        1 
H       2.60520000      -1.22880000      -0.30830000        1 
H      -0.47160000      -0.41330000      -1.11250000        1 
H       1.23450000      -0.05160000      -2.02980000        1 
H       1.85660000       1.82160000      -0.75770000        1 
H       2.35560000       2.30910000       0.89860000        1 
H       3.36690000       1.13630000      -0.02450000        1 
H      -2.86040000       0.84130000       2.35200000        1 
H      -3.58130000       1.26400000       0.75070000        1 
H      -1.87760000       1.74150000       1.13290000        1 
H      -2.45720000      -1.18300000      -1.26080000        1 
H      -1.91820000       0.54570000      -1.27240000        1 
H      -0.00410000      -2.55760000      -1.65440000        1 
