7
Properties=species:S:1:pos:R:3:Z:I:1 pbc="F F F"
O      -1.06330000       0.76270000      -0.17960000        8 
C      -0.29390000      -0.39690000      -0.09150000        6 
H      -0.70590000      -1.16650000      -0.77620000        1 
H      -0.31710000      -0.78130000       0.94980000        1 
H      -0.42110000       1.50220000      -0.03040000        1 
H       1.81350000       0.22460000       0.26390000        1 
H       0.98780000      -0.14480000      -0.13610000        1 
