21
Properties=species:S:1:pos:R:3:Z:I:1 pbc="F F F"
O      -4.62850000       0.73950000       1.16560000        8 
C      -2.45490000       0.20250000       0.42370000        6 
C       1.80670000      -0.36290000       0.42620000        6 
C      -1.80220000      -0.70690000      -0.61070000        6 
C       3.15120000       0.13110000      -0.03250000        6 
C      -3.94920000       0.07760000       0.39770000        6 
C       0.84940000      -0.47450000      -0.75150000        6 
C       3.67770000       1.27280000       0.41970000        6 
H      -2.17100000       1.25550000       0.21210000        1 
H      -2.08140000      -0.06990000       1.43380000        1 
H       1.36120000       0.31550000       1.18600000        1 
H       1.92960000      -1.36430000       0.88950000        1 
H      -0.48270000      -0.56300000      -0.55140000        1 
H      -2.05470000      -1.76920000      -0.40520000        1 
H      -2.14470000      -0.43740000      -1.63280000        1 
H       3.71190000      -0.46170000      -0.74960000        1 
H       1.23280000      -1.19510000      -1.50550000        1 
H       0.68910000       0.51900000      -1.22250000        1 
H      -4.44030000      -0.59680000      -0.29780000        1 
H       4.65170000       1.59680000       0.06780000        1 
H       3.14810000       1.89160000       1.13760000        1 
