25
Properties=species:S:1:pos:R:3:Z:I:1 pbc="F F F"
O       2.71040000       0.83110000       1.80280000        8 
C       2.06150000       0.55570000       0.58880000        6 
C       1.74750000      -0.95130000       0.50700000        6 
C      -2.74170000      -0.54680000      -0.04260000        6 
C       2.96500000       1.01460000      -0.55860000        6 
C       0.84760000      -1.30390000      -0.67620000        6 
C      -3.85410000       0.49390000       0.03870000        6 
C      -1.40920000       0.09360000      -0.41040000        6 
H       1.11190000       1.13860000       0.53530000        1 
H       2.69040000      -1.53750000       0.44440000        1 
H       1.22160000      -1.25830000       1.43700000        1 
H      -2.64050000      -1.05710000       0.93890000        1 
H      -3.00250000      -1.30760000      -0.80870000        1 
H      -4.80940000      -0.00380000       0.30790000        1 
H      -3.98110000       1.00020000      -0.94200000        1 
H      -3.61700000       1.25210000       0.81530000        1 
H      -0.25180000      -0.55810000      -0.65710000        1 
H       0.55170000      -2.37210000      -0.60970000        1 
H       1.38220000      -1.15390000      -1.63680000        1 
H       3.24390000       2.07970000      -0.41130000        1 
H       3.89450000       0.40690000      -0.59160000        1 
H       2.43810000       0.93390000      -1.53180000        1 
H      -1.10260000       0.83460000       0.35840000        1 
H      -1.46820000       0.58160000      -1.40660000        1 
H       2.01210000       0.83400000       2.50890000        1 
