15
Properties=species:S:1:pos:R:3:Z:I:1 pbc="F F F"
O      -3.14010000       0.14920000      -0.33710000        8 
O       1.21340000      -0.71900000      -1.72140000        8 
C       2.39050000       0.16820000       0.11990000        6 
C      -2.00830000       0.82830000       0.12090000        6 
C       1.21430000      -0.50540000      -0.51930000        6 
C       0.03200000      -0.91700000       0.30050000        6 
H       2.82850000      -0.49940000       0.89110000        1 
H       3.16950000       0.40010000      -0.63760000        1 
H       2.06360000       1.11490000       0.59860000        1 
H      -0.98070000      -0.00170000       0.19550000        1 
H      -1.76350000       1.66620000      -0.56680000        1 
H      -2.21290000       1.23990000       1.13070000        1 
H      -0.09970000      -2.01780000       0.24470000        1 
H       0.15660000      -0.61640000       1.36250000        1 
H      -2.86350000      -0.29000000      -1.18220000        1 
