18
Properties=species:S:1:pos:R:3:Z:I:1 pbc="F F F"
O      -2.55570000       2.62010000       0.50800000        8 
C      -2.29980000       0.27970000       0.63830000        6 
C      -1.51530000      -0.81180000      -0.07860000        6 
C       2.11240000       0.21570000      -0.39390000        6 
C      -2.01130000       1.62840000       0.05080000        6 
C       1.10990000      -0.81820000       0.00830000        6 
C       3.42040000      -0.05050000      -0.39260000        6 
H      -2.01870000       0.28210000       1.71300000        1 
H      -3.38700000       0.06660000       0.55360000        1 
H      -0.13660000      -0.55470000       0.02300000        1 
H      -1.73190000      -1.79540000       0.38890000        1 
H      -1.80440000      -0.85450000      -1.15060000        1 
H       1.76360000       1.19930000      -0.69150000        1 
H      -1.32110000       1.73850000      -0.78060000        1 
H       1.28350000      -1.13490000       1.05840000        1 
H       1.17080000      -1.69710000      -0.66780000        1 
H       4.13060000       0.71480000      -0.68830000        1 
H       3.79050000      -1.02820000      -0.09840000        1 
