26
Properties=species:S:1:pos:R:3:Z:I:1 pbc="F F F"
O      -0.47200000       0.23170000       0.28970000        8 
C      -2.83810000       0.10430000      -0.20180000        6 
C      -1.40790000       0.23620000      -0.75080000        6 
C       3.18340000       0.56440000       0.04150000        6 
C      -3.19810000       1.28910000       0.70340000        6 
C      -3.02890000      -1.22440000       0.54040000        6 
C       3.77860000      -0.73220000      -0.43040000        6 
C       1.79400000       0.74400000      -0.55030000        6 
C       4.12230000      -1.70480000       0.41910000        6 
H      -3.53600000       0.11360000      -1.06820000        1 
H       3.83530000       1.40250000      -0.28440000        1 
H       3.10730000       0.59350000       1.15040000        1 
H      -1.31490000       1.18310000      -1.32630000        1 
H      -1.19440000      -0.60790000      -1.44250000        1 
H      -4.25640000       1.20990000       1.03210000        1 
H      -3.07950000       2.24450000       0.14910000        1 
H      -2.54660000       1.31220000       1.60320000        1 
H      -2.37240000      -1.27590000       1.43530000        1 
H      -2.78870000      -2.07610000      -0.13120000        1 
H      -4.08540000      -1.33010000       0.86740000        1 
H       3.94000000      -0.87950000      -1.49460000        1 
H       1.84750000       0.80580000      -1.65850000        1 
H       1.33160000       1.67380000      -0.15710000        1 
H       4.55270000      -2.62660000       0.04150000        1 
H       3.97910000      -1.59430000       1.48960000        1 
H       0.64730000       0.34310000      -0.26670000        1 
