10
Properties=species:S:1:pos:R:3:Z:I:1 pbc="F F F"
O      -1.76200000       1.58540000      -0.74620000        8 
C      -1.05530000      -0.53260000       0.02020000        6 
C      -1.54890000       0.86370000       0.21470000        6 
C       1.77880000      -0.37410000       0.00270000        6 
C       2.95600000      -0.12830000      -0.07970000        6 
H      -1.78160000      -1.24830000       0.45800000        1 
H      -0.91900000      -0.75980000      -1.05880000        1 
H      -1.71800000       1.23930000       1.21810000        1 
H       0.06030000      -0.73290000       0.12300000        1 
H       3.98960000       0.08750000      -0.15210000        1 
