20
Properties=species:S:1:pos:R:3:Z:I:1 pbc="F F F"
O      -2.51220000      -0.16980000      -0.30510000        8 
C       1.69640000      -1.28400000       0.49070000        6 
C      -1.54840000       0.85850000      -0.28140000        6 
C      -3.69420000       0.31720000      -0.89880000        6 
C       2.78670000      -0.57800000      -0.26420000        6 
C       0.57480000      -0.32080000       0.85670000        6 
C       3.58960000       0.31290000       0.32570000        6 
H       2.10980000      -1.75570000       1.40840000        1 
H       1.27620000      -2.08550000      -0.15340000        1 
H      -0.46840000       0.39890000       0.26580000        1 
H      -1.28790000       1.19120000      -1.31100000        1 
H      -1.89400000       1.72140000       0.33060000        1 
H      -4.44530000      -0.49910000      -0.91240000        1 
H      -3.51770000       0.62880000      -1.95260000        1 
H      -4.12370000       1.15910000      -0.31100000        1 
H       2.94380000      -0.81890000      -1.31160000        1 
H      -0.26850000      -0.87900000       1.31520000        1 
H       0.93370000       0.44480000       1.57690000        1 
H       3.47330000       0.56160000       1.37620000        1 
H       4.37600000       0.79620000      -0.24480000        1 
