18
Properties=species:S:1:pos:R:3:Z:I:1 pbc="F F F"
O       2.40080000      -0.29630000      -1.89210000        8 
C      -1.51810000      -1.05600000      -0.03310000        6 
C       2.80100000       0.96260000       0.05830000        6 
C      -2.06860000       0.18360000       0.61400000        6 
C      -0.05020000      -1.22240000       0.32840000        6 
C       2.00390000       0.02280000      -0.78320000        6 
C      -2.56400000       1.19670000      -0.10270000        6 
H      -2.08990000      -1.93750000       0.32700000        1 
H      -1.61170000      -1.00880000      -1.14000000        1 
H       3.80450000       0.53100000       0.25610000        1 
H       2.91320000       1.93420000      -0.46680000        1 
H       2.28010000       1.12910000       1.02390000        1 
H      -2.06930000       0.25400000       1.69810000        1 
H       0.06800000      -1.35930000       1.42470000        1 
H       0.37130000      -2.10640000      -0.19510000        1 
H       0.86830000      -0.46480000      -0.32970000        1 
H      -2.58320000       1.16270000      -1.18770000        1 
H      -2.95610000       2.07490000       0.40000000        1 
