26
Properties=species:S:1:pos:R:3:Z:I:1 pbc="F F F"
O      -0.76460000      -0.25430000      -1.02430000        8 
C      -1.52620000      -0.85490000      -0.01400000        6 
C      -2.09780000       0.21150000       0.94100000        6 
C      -2.61860000      -1.72100000      -0.64440000        6 
C      -2.94500000       1.27380000       0.23720000        6 
C       4.02490000       0.83610000      -0.56710000        6 
C       2.80140000       0.15190000      -0.01990000        6 
C       1.42520000       0.66750000      -0.33150000        6 
C       2.93500000      -0.93800000       0.74560000        6 
H      -0.86710000      -1.52790000       0.57850000        1 
H      -1.25260000       0.71980000       1.45390000        1 
H      -2.71120000      -0.28130000       1.72640000        1 
H      -3.24620000       2.04940000       0.97240000        1 
H      -3.86750000       0.82490000      -0.18570000        1 
H      -2.36620000       1.76570000      -0.57260000        1 
H      -2.15150000      -2.55240000      -1.21380000        1 
H      -3.26930000      -2.15810000       0.14280000        1 
H      -3.23990000      -1.12720000      -1.34690000        1 
H       4.59550000       0.13030000      -1.20710000        1 
H       4.67250000       1.17280000       0.26990000        1 
H       3.75440000       1.72290000      -1.17750000        1 
H       1.45150000       1.51030000      -1.05330000        1 
H       0.92380000       1.00100000       0.60150000        1 
H       3.91830000      -1.33400000       0.98230000        1 
H       2.06300000      -1.44780000       1.14490000        1 
H       0.35790000       0.15920000      -0.43820000        1 
