26
Properties=species:S:1:pos:R:3:Z:I:1 pbc="F F F"
O      -0.80900000      -2.31830000       1.35890000        8 
C      -1.56860000      -0.47960000       0.03570000        6 
C      -2.29890000       0.86650000       0.06600000        6 
C      -1.48920000      -1.09680000       1.42990000        6 
C       2.06920000      -0.80050000       0.11910000        6 
C      -2.36630000       1.48420000      -1.32700000        6 
C       3.38140000      -0.15440000      -0.23020000        6 
C       0.95530000      -0.34490000      -0.81630000        6 
C       3.59610000       1.15120000      -0.04260000        6 
H      -3.33340000       0.72460000       0.44840000        1 
H      -1.76410000       1.56680000       0.74380000        1 
H      -0.36230000      -0.30620000      -0.41670000        1 
H      -2.10450000      -1.17990000      -0.64240000        1 
H       2.17290000      -1.90260000       0.03070000        1 
H       1.79650000      -0.56340000       1.16980000        1 
H      -0.94380000      -0.40590000       2.11130000        1 
H      -2.51700000      -1.26340000       1.82410000        1 
H      -2.89880000       2.45730000      -1.27660000        1 
H      -2.91730000       0.81360000      -2.02050000        1 
H      -1.34280000       1.65960000      -1.72160000        1 
H       4.18460000      -0.77160000      -0.62200000        1 
H       0.76030000       0.74280000      -0.70580000        1 
H       1.20600000      -0.58230000      -1.87230000        1 
H       4.55850000       1.58470000      -0.29430000        1 
H       2.82100000       1.79280000       0.36550000        1 
H      -0.78570000      -2.67440000       2.28500000        1 
