13
Properties=species:S:1:pos:R:3:Z:I:1 pbc="F F F"
O       3.03330000       1.67870000      -0.02600000        8 
C      -0.77280000      -0.48950000      -0.46570000        6 
C      -1.49150000       0.64570000       0.25340000        6 
C       0.53570000      -0.82870000       0.23440000        6 
C       2.76720000       0.49290000      -0.12720000        6 
H      -1.42570000      -1.38860000      -0.48890000        1 
H      -0.55610000      -0.18050000      -1.51060000        1 
H      -1.74130000       0.34670000       1.29390000        1 
H      -0.85120000       1.55340000       0.27590000        1 
H      -2.43360000       0.88750000      -0.28240000        1 
H       0.34070000      -1.20380000       1.26180000        1 
H       1.08160000      -1.60700000      -0.33920000        1 
H       1.51380000       0.09320000      -0.07940000        1 
