17
Properties=species:S:1:pos:R:3:Z:I:1 pbc="F F F"
O      -2.06300000       1.47070000       0.57190000        8 
C       0.57900000      -0.58460000       0.96880000        6 
C       0.78660000       0.94180000      -1.12070000        6 
C       1.10470000      -0.34940000      -0.42090000        6 
C       1.84900000      -1.27650000      -1.04050000        6 
C      -1.98320000       0.08470000       0.73850000        6 
H      -0.74330000      -0.51780000       0.95370000        1 
H       0.97240000       0.19820000       1.65060000        1 
H       0.87770000      -1.57920000       1.36450000        1 
H       0.22790000       0.73500000      -2.05800000        1 
H       0.16360000       1.59760000      -0.47610000        1 
H       1.72710000       1.47910000      -1.36630000        1 
H       2.09200000      -2.21760000      -0.55660000        1 
H       2.22630000      -1.10400000      -2.04430000        1 
H      -2.09120000      -0.18470000       1.81150000        1 
H      -2.76120000      -0.42550000       0.13010000        1 
H      -2.96460000       1.73200000       0.89370000        1 
