26
Properties=species:S:1:pos:R:3:Z:I:1 pbc="F F F"
O      -4.30050000      -0.52920000      -0.58610000        8 
C      -2.57410000       0.90010000       0.28220000        6 
C      -1.40680000       0.10310000      -0.31460000        6 
C      -3.83290000       0.79140000      -0.57950000        6 
C       2.93580000      -1.32070000       0.60840000        6 
C      -0.15200000       0.23990000       0.54080000        6 
C       3.32380000       0.12110000       0.77520000        6 
C       1.70670000      -1.45530000      -0.28110000        6 
C       3.83400000       0.83490000      -0.23300000        6 
H      -1.18280000       0.47300000      -1.33860000        1 
H      -1.67640000      -0.97300000      -0.38010000        1 
H      -2.79970000       0.52950000       1.30630000        1 
H      -2.28760000       1.97200000       0.35680000        1 
H       2.69640000      -1.74480000       1.60670000        1 
H       3.78320000      -1.89800000       0.17900000        1 
H      -3.60920000       1.12340000      -1.61840000        1 
H      -4.61550000       1.45960000      -0.15610000        1 
H       0.83220000      -0.46410000      -0.00790000        1 
H      -0.33860000      -0.14680000       1.56530000        1 
H       0.16140000       1.30400000       0.60030000        1 
H       3.21170000       0.58770000       1.74960000        1 
H       1.37040000      -2.51320000      -0.30390000        1 
H       1.93390000      -1.12720000      -1.31760000        1 
H       3.97850000       0.39340000      -1.21440000        1 
H       4.11590000       1.87100000      -0.07620000        1 
H      -5.10800000      -0.53190000      -1.16300000        1 
