25
Properties=species:S:1:pos:R:3:Z:I:1 pbc="F F F"
C      -1.17450000      -0.64370000      -0.33460000        6 
C      -1.40690000       0.45800000       0.70850000        6 
C       2.01670000      -0.17920000      -0.83320000        6 
C      -2.24100000      -1.73600000      -0.28710000        6 
C      -2.61260000       1.33740000       0.37890000        6 
C       3.17360000       0.44130000      -0.09920000        6 
C       1.34790000      -1.24180000       0.02680000        6 
C       3.21160000       1.74560000       0.18840000        6 
H      -0.02110000      -1.19370000      -0.09550000        1 
H      -1.13440000      -0.20420000      -1.35500000        1 
H      -1.53660000       0.00840000       1.71670000        1 
H      -0.50220000       1.10230000       0.74160000        1 
H       2.39260000      -0.65100000      -1.76520000        1 
H       1.25750000       0.58250000      -1.11500000        1 
H      -1.95850000      -2.55340000      -0.98300000        1 
H      -3.22750000      -1.33690000      -0.60170000        1 
H      -2.31940000      -2.15660000       0.73770000        1 
H      -2.66720000       2.17550000       1.10530000        1 
H      -2.51640000       1.76170000      -0.64310000        1 
H      -3.55460000       0.75540000       0.45090000        1 
H       4.00460000      -0.19040000       0.20130000        1 
H       2.06250000      -2.05520000       0.27670000        1 
H       0.94110000      -0.79380000       0.95850000        1 
H       4.06410000       2.15880000       0.71760000        1 
H       2.40070000       2.40890000      -0.09660000        1 
