26
Properties=species:S:1:pos:R:3:Z:I:1 pbc="F F F"
O      -0.15920000       0.68790000       0.49030000        8 
C      -2.43940000      -0.04200000       0.75450000        6 
C      -1.14470000      -0.13170000      -0.06830000        6 
C      -3.01920000       1.37840000       0.71980000        6 
C      -3.47230000      -1.05000000       0.23720000        6 
C       3.99340000       0.16890000       0.45580000        6 
C       2.94170000      -0.23750000      -0.54070000        6 
C       1.87610000       0.72850000      -0.97450000        6 
C       2.94410000      -1.47880000      -1.04170000        6 
H      -2.20540000      -0.29980000       1.81130000        1 
H      -0.77500000      -1.18020000      -0.07240000        1 
H      -1.33350000       0.18020000      -1.11900000        1 
H      -3.25920000       1.67910000      -0.32280000        1 
H      -3.94680000       1.42810000       1.32920000        1 
H      -2.29270000       2.10320000       1.14440000        1 
H      -3.06720000      -2.08230000       0.30300000        1 
H      -3.73540000      -0.83430000      -0.82090000        1 
H      -4.39570000      -1.00340000       0.85340000        1 
H       3.93030000      -0.48040000       1.35460000        1 
H       5.00140000       0.06390000       0.00150000        1 
H       3.86280000       1.22390000       0.77530000        1 
H       1.92820000       1.68380000      -0.41180000        1 
H       1.97240000       0.93850000      -2.06070000        1 
H       3.70060000      -2.19810000      -0.74140000        1 
H       2.18980000      -1.79120000      -1.75800000        1 
H       0.90500000       0.54530000      -0.29810000        1 
