15
Properties=species:S:1:pos:R:3:Z:I:1 pbc="F F F"
O      -2.23820000      -1.06480000       0.60650000        8 
O       3.72390000      -0.38520000      -0.29560000        8 
C      -2.06670000       0.08770000      -0.17160000        6 
C      -0.84540000       0.86540000       0.29950000        6 
C       1.37480000      -0.51940000      -0.18370000        6 
C       2.68030000       0.18180000      -0.01560000        6 
H      -2.96830000       0.72760000      -0.06770000        1 
H      -1.95300000      -0.17970000      -1.24640000        1 
H       0.26790000       0.10280000       0.15890000        1 
H      -0.96290000       1.14880000       1.36690000        1 
H      -0.73020000       1.78730000      -0.30870000        1 
H       1.23080000      -0.80290000      -1.24730000        1 
H       1.34750000      -1.42790000       0.45350000        1 
H       2.70140000       1.19990000       0.35700000        1 
H      -1.56200000      -1.72150000       0.29440000        1 
