17
Properties=species:S:1:pos:R:3:Z:I:1 pbc="F F F"
O       2.82840000       1.21180000      -0.94730000        8 
C      -0.82800000      -0.06410000       0.32390000        6 
C      -1.51670000      -1.24400000      -0.35300000        6 
C      -1.40270000       1.26420000      -0.15550000        6 
C       1.73380000      -0.56630000       0.13670000        6 
C       2.57290000       0.66700000       0.11380000        6 
H       0.47020000      -0.10130000       0.04650000        1 
H      -0.95660000      -0.14500000       1.42490000        1 
H      -1.37620000      -1.19070000      -1.45340000        1 
H      -2.60280000      -1.24400000      -0.11930000        1 
H      -1.07210000      -2.19180000       0.01590000        1 
H      -1.25980000       1.37100000      -1.25170000        1 
H      -0.87710000       2.09880000       0.35380000        1 
H      -2.48600000       1.32560000       0.08310000        1 
H       2.23290000      -1.37200000      -0.44140000        1 
H       1.58500000      -0.90440000       1.18340000        1 
H       2.95490000       1.08500000       1.03950000        1 
