23
Properties=species:S:1:pos:R:3:Z:I:1 pbc="F F F"
C       1.94660000      -0.88580000      -0.32850000        6 
C      -0.49430000      -0.68710000       0.19420000        6 
C      -2.63610000       0.78210000       0.14220000        6 
C      -1.14110000       0.65780000       0.02190000        6 
C       1.11650000       0.11720000       0.42200000        6 
C       1.29920000      -1.19680000      -1.66900000        6 
C      -0.38070000       1.73040000      -0.23910000        6 
C       0.57270000      -0.16060000       1.61050000        6 
H       2.05360000      -1.83160000       0.24610000        1 
H       2.96050000      -0.46430000      -0.49630000        1 
H       0.13870000      -0.99600000      -0.86360000        1 
H      -1.25630000      -1.47050000       0.39280000        1 
H       0.21410000      -0.65820000       1.04910000        1 
H      -2.95490000       0.44840000       1.15190000        1 
H      -3.12330000       0.13980000      -0.62100000        1 
H      -2.97990000       1.82830000      -0.00720000        1 
H       0.95990000       1.10020000      -0.01330000        1 
H       1.88180000      -1.97960000      -2.19890000        1 
H       1.25700000      -0.28470000      -2.30230000        1 
H       0.70850000      -1.13050000       2.07930000        1 
H      -0.01840000       0.59050000       2.12450000        1 
H       0.69790000       1.63720000      -0.32630000        1 
H      -0.82200000       2.71380000      -0.36910000        1 
