22
Properties=species:S:1:pos:R:3:Z:I:1 pbc="F F F"
C       2.26700000      -0.50830000      -0.25690000        6 
C       3.60910000      -0.43060000       0.46410000        6 
C      -1.03940000       0.56750000      -0.98580000        6 
C      -3.26810000       0.87670000       0.35060000        6 
C      -2.18090000      -0.01010000      -0.19440000        6 
C       1.26570000       0.47990000       0.32770000        6 
C      -2.22780000      -1.32990000       0.02940000        6 
H       2.41280000      -0.28250000      -1.33470000        1 
H       1.85740000      -1.53680000      -0.16580000        1 
H       4.31450000      -1.16120000       0.01530000        1 
H       3.48310000      -0.67330000       1.54090000        1 
H       4.04160000       0.58790000       0.36540000        1 
H       0.05950000       0.29780000      -0.40720000        1 
H      -1.12560000       1.67010000      -1.07910000        1 
H      -1.03000000       0.12880000      -2.00610000        1 
H      -3.09530000       1.94070000       0.08600000        1 
H      -4.24940000       0.56750000      -0.06740000        1 
H      -3.30170000       0.79250000       1.45750000        1 
H       1.07060000       0.25640000       1.39820000        1 
H       1.63150000       1.52310000       0.21770000        1 
H      -3.04180000      -1.76890000       0.59880000        1 
H      -1.45280000      -1.98710000      -0.35420000        1 
