22
Properties=species:S:1:pos:R:3:Z:I:1 pbc="F F F"
C      -1.74130000      -0.27560000       0.12750000        6 
C      -1.77590000       1.19320000       0.55900000        6 
C      -1.52030000      -0.38640000      -1.38360000        6 
C       2.02170000      -0.71880000       0.77690000        6 
C       2.46850000       0.57950000       0.18160000        6 
C      -0.63630000      -1.01890000       0.87730000        6 
C       2.24240000       0.86140000      -1.10300000        6 
H      -2.71890000      -0.74300000       0.37900000        1 
H      -0.80770000       1.69090000       0.33450000        1 
H      -2.58870000       1.73030000       0.02500000        1 
H      -1.97290000       1.26730000       1.64990000        1 
H      -0.54390000       0.06020000      -1.67100000        1 
H      -2.33160000       0.14130000      -1.92910000        1 
H      -1.53280000      -1.45280000      -1.69520000        1 
H       0.76060000      -0.83150000       0.66680000        1 
H       2.51540000      -1.56530000       0.25460000        1 
H       2.29410000      -0.75160000       1.85250000        1 
H       2.98260000       1.30420000       0.80610000        1 
H      -0.80000000      -0.95710000       1.97450000        1 
H      -0.61680000      -2.08960000       0.58170000        1 
H       2.57250000       1.80850000      -1.51750000        1 
H       1.72930000       0.15400000      -1.74770000        1 
