24
Properties=species:S:1:pos:R:3:Z:I:1 pbc="F F F"
O      -4.04320000      -0.90710000      -0.08440000        8 
C      -3.44840000       0.33940000      -0.32510000        6 
C       1.33980000       0.76930000      -0.43380000        6 
C       3.25730000      -0.25550000       1.02270000        6 
C       2.45730000      -0.22070000      -0.25160000        6 
C      -2.07030000       0.38370000       0.28980000        6 
C       2.74040000      -1.08370000      -1.23600000        6 
C      -0.97680000      -0.48940000      -0.25450000        6 
C      -1.79810000       1.21170000       1.30750000        6 
H      -4.10380000       1.12580000       0.10730000        1 
H      -3.37750000       0.54110000      -1.41840000        1 
H       0.18700000       0.10930000      -0.66450000        1 
H       1.20740000       1.40420000       0.46690000        1 
H       1.56020000       1.42920000      -1.29940000        1 
H       4.32850000      -0.06620000       0.79880000        1 
H       2.90930000       0.51500000       1.74190000        1 
H       3.15670000      -1.25230000       1.50200000        1 
H      -0.66280000      -1.22840000       0.51260000        1 
H      -1.30190000      -1.02580000      -1.17060000        1 
H      -0.80330000       1.24820000       1.74200000        1 
H      -2.56200000       1.86210000       1.72270000        1 
H       2.17410000      -1.07580000      -2.16270000        1 
H       3.54200000      -1.80840000      -1.12680000        1 
H      -3.71190000      -1.52580000      -0.78650000        1 
