24
Properties=species:S:1:pos:R:3:Z:I:1 pbc="F F F"
O      -3.43240000      -1.19930000       0.43100000        8 
O       2.13230000       0.82020000      -1.59260000        8 
C      -1.45540000      -0.05800000      -0.41100000        6 
C      -2.60350000      -1.04510000      -0.69160000        6 
C      -0.51190000      -0.58440000       0.67540000        6 
C      -1.98970000       1.32940000      -0.03660000        6 
C       3.79350000      -0.26510000      -0.31780000        6 
C       2.51880000       0.50650000      -0.47780000        6 
C       1.70640000       0.89480000       0.71740000        6 
H      -0.86360000       0.04730000      -1.34680000        1 
H      -3.21860000      -0.65910000      -1.53240000        1 
H      -2.19160000      -2.02810000      -1.01890000        1 
H       0.54350000       0.25740000       0.81020000        1 
H      -0.12340000      -1.58650000       0.39460000        1 
H      -1.03320000      -0.65930000       1.65360000        1 
H      -2.65040000       1.71530000      -0.84190000        1 
H      -2.56600000       1.28880000       0.91250000        1 
H      -1.14650000       2.04180000       0.08920000        1 
H       3.58270000      -1.23480000       0.17980000        1 
H       4.25910000      -0.46360000      -1.30680000        1 
H       4.50610000       0.31720000       0.30300000        1 
H       2.15710000       0.50140000       1.65310000        1 
H       1.63660000       2.00090000       0.78160000        1 
H      -3.05000000      -1.93780000       0.97280000        1 
