20
Properties=species:S:1:pos:R:3:Z:I:1 pbc="F F F"
C      -1.30240000       1.15120000       0.07410000        6 
C      -1.01660000       0.03270000      -0.93600000        6 
C      -2.41970000       0.78920000       1.05230000        6 
C       2.01920000       0.15270000      -0.46810000        6 
C      -0.32050000      -1.15830000      -0.28630000        6 
C       2.98930000      -0.70530000       0.21250000        6 
C       3.78830000      -1.41250000       0.77330000        6 
H      -0.37750000       1.39890000       0.63950000        1 
H      -1.61000000       2.06110000      -0.48540000        1 
H      -1.95760000      -0.30000000      -1.42580000        1 
H      -0.34660000       0.43670000      -1.72530000        1 
H      -2.10980000      -0.04930000       1.70990000        1 
H      -3.34160000       0.50610000       0.50130000        1 
H      -2.64720000       1.66670000       1.69350000        1 
H       0.84680000      -0.41460000      -0.44520000        1 
H       1.96560000       1.13310000       0.04850000        1 
H       2.33500000       0.30620000      -1.52050000        1 
H       0.03010000      -1.86350000      -1.06900000        1 
H      -1.01470000      -1.69780000       0.39110000        1 
H       4.48990000      -2.03330000       1.26570000        1 
