25
Properties=species:S:1:pos:R:3:Z:I:1 pbc="F F F"
O      -3.23240000       2.10010000       0.58490000        8 
C      -1.36120000       0.60300000       0.35460000        6 
C      -0.66500000      -0.42120000      -0.55260000        6 
C       2.83980000      -0.32150000      -0.12920000        6 
C      -2.71680000       1.05870000      -0.19870000        6 
C      -1.35230000      -1.78510000      -0.54020000        6 
C       2.81450000       1.19140000       0.05190000        6 
C       1.66390000      -0.97020000       0.58770000        6 
H       0.55340000      -0.57890000      -0.12760000        1 
H      -0.61210000      -0.03830000      -1.59500000        1 
H      -1.49300000       0.17810000       1.37340000        1 
H      -0.69870000       1.49100000       0.44360000        1 
H       2.78130000      -0.56040000      -1.21260000        1 
H       3.79170000      -0.72930000       0.27400000        1 
H      -3.43700000       0.21070000      -0.22360000        1 
H      -2.58850000       1.43280000      -1.23680000        1 
H       3.66990000       1.64510000      -0.49170000        1 
H       2.89890000       1.45280000       1.12840000        1 
H       1.87020000       1.61200000      -0.35530000        1 
H      -2.35560000      -1.72510000      -1.01020000        1 
H      -0.74030000      -2.50810000      -1.11890000        1 
H      -1.45070000      -2.16010000       0.50050000        1 
H       1.65490000      -2.06260000       0.38870000        1 
H       1.73550000      -0.80070000       1.68330000        1 
H      -3.57050000       1.68560000       1.42150000        1 
