25
Properties=species:S:1:pos:R:3:Z:I:1 pbc="F F F"
C      -1.63370000      -0.29860000       0.25480000        6 
C       2.13610000      -0.23700000      -0.98250000        6 
C      -1.97500000      -1.33120000       1.33340000        6 
C      -2.16220000       1.08520000       0.64440000        6 
C      -2.19600000      -0.72940000      -1.10330000        6 
C       3.24330000       0.77120000      -0.84370000        6 
C       0.94540000       0.11510000      -0.09850000        6 
C       3.95860000       0.88200000       0.27970000        6 
H      -0.36690000      -0.22830000       0.15730000        1 
H       1.79490000      -0.25740000      -2.03910000        1 
H       2.50980000      -1.25030000      -0.72160000        1 
H      -3.07590000      -1.42590000       1.45310000        1 
H      -1.55590000      -2.32230000       1.05830000        1 
H      -1.53180000      -1.02730000       2.30550000        1 
H      -3.26930000       1.07070000       0.74120000        1 
H      -1.87770000       1.83250000      -0.12650000        1 
H      -1.72000000       1.40310000       1.61250000        1 
H      -1.77820000      -1.71700000      -1.39270000        1 
H      -1.91170000       0.00730000      -1.88440000        1 
H      -3.30420000      -0.80420000      -1.06460000        1 
H       3.48400000       1.40900000      -1.68910000        1 
H       1.21910000       0.07140000       0.97690000        1 
H       0.55150000       1.12270000      -0.35140000        1 
H       3.75690000       0.24640000       1.13650000        1 
H       4.75880000       1.61210000       0.34380000        1 
