24
Properties=species:S:1:pos:R:3:Z:I:1 pbc="F F F"
O      -0.10890000       0.70260000      -0.82580000        8 
O       3.03240000      -1.99870000      -0.08390000        8 
C      -2.28450000      -0.17050000      -0.19480000        6 
C      -1.09780000      -0.22750000      -1.17270000        6 
C      -2.95010000       1.21130000      -0.20630000        6 
C      -1.85980000      -0.55700000       1.22730000        6 
C       3.96090000       0.14340000      -0.41850000        6 
C       2.88970000      -0.79360000       0.05060000        6 
C       1.63800000      -0.26820000       0.68030000        6 
H      -3.03860000      -0.91370000      -0.53670000        1 
H      -0.67010000      -1.25460000      -1.19490000        1 
H      -1.45450000       0.00030000      -2.19980000        1 
H      -3.27860000       1.46960000      -1.23560000        1 
H      -3.84550000       1.20860000       0.45130000        1 
H      -2.24660000       1.99250000       0.15330000        1 
H      -2.74970000      -0.60100000       1.89100000        1 
H      -1.38030000      -1.55910000       1.22560000        1 
H      -1.14460000       0.18460000       1.64310000        1 
H       4.33290000       0.74310000       0.43840000        1 
H       4.81160000      -0.42080000      -0.85720000        1 
H       3.54790000       0.82580000      -1.19060000        1 
H       1.55350000      -0.64530000       1.72100000        1 
H       1.63090000       0.84240000       0.69150000        1 
H       0.71200000       0.08600000      -0.05640000        1 
