15
Properties=species:S:1:pos:R:3:Z:I:1 pbc="F F F"
O       2.99760000      -0.39140000       1.24590000        8 
C      -0.76190000      -0.81080000      -0.87680000        6 
C      -1.72520000      -0.57610000       0.24390000        6 
C      -2.03280000       0.66090000       0.63880000        6 
C       1.63520000       0.35920000      -0.52980000        6 
C       2.12160000       0.37670000       0.88240000        6 
H       0.39080000      -0.28970000      -0.58190000        1 
H      -0.63400000      -1.90140000      -1.03940000        1 
H      -1.14740000      -0.35040000      -1.81100000        1 
H      -2.17850000      -1.42620000       0.74510000        1 
H       2.16120000      -0.41970000      -1.12220000        1 
H       1.80570000       1.35250000      -0.99430000        1 
H       1.69180000       1.07690000       1.59040000        1 
H      -2.73240000       0.81250000       1.45430000        1 
H      -1.59170000       1.52720000       0.15460000        1 
