18
Properties=species:S:1:pos:R:3:Z:I:1 pbc="F F F"
O       1.41430000      -1.55900000       1.21300000        8 
C       0.91790000       0.62590000       0.49890000        6 
C       3.13580000      -0.60410000      -0.08560000        6 
C       1.79700000      -0.58270000       0.58720000        6 
C      -2.57000000       0.58570000      -0.40380000        6 
C      -1.28420000       0.00280000      -0.89560000        6 
C      -3.29160000      -0.03940000       0.52780000        6 
H      -0.28740000       0.27630000      -0.08840000        1 
H       0.72590000       1.02240000       1.51790000        1 
H       1.39770000       1.42080000      -0.11070000        1 
H       3.00650000      -0.45480000      -1.17800000        1 
H       3.64580000      -1.57620000       0.08540000        1 
H       3.77090000       0.21000000       0.32210000        1 
H      -2.91410000       1.53610000      -0.80110000        1 
H      -0.80570000       0.69590000      -1.61870000        1 
H      -1.47470000      -0.97070000      -1.39480000        1 
H      -2.96420000      -0.98740000       0.94450000        1 
H      -4.22000000       0.39830000       0.88000000        1 
