21
Properties=species:S:1:pos:R:3:Z:I:1 pbc="F F F"
O       3.48620000      -0.03020000      -0.89950000        8 
C      -1.74260000      -0.95570000       0.38940000        6 
C       1.70460000      -0.64820000       0.51620000        6 
C       2.81870000       1.70220000       0.54700000        6 
C       2.72460000       0.31490000      -0.00930000        6 
C      -2.99860000      -0.67120000      -0.38710000        6 
C      -0.79860000       0.24090000       0.38360000        6 
C      -2.98950000      -0.53420000      -1.71650000        6 
H      -2.01160000      -1.18550000       1.44210000        1 
H      -1.22580000      -1.84280000      -0.03550000        1 
H       0.50640000      -0.15340000       0.34100000        1 
H       1.87540000      -0.81780000       1.59990000        1 
H       1.77280000      -1.62180000      -0.01470000        1 
H       2.06160000       1.86040000       1.34400000        1 
H       2.64450000       2.44100000      -0.26320000        1 
H       3.82950000       1.86340000       0.97680000        1 
H      -3.94250000      -0.60030000       0.14540000        1 
H      -1.29540000       1.13650000       0.81410000        1 
H      -0.43860000       0.46120000      -0.64370000        1 
H      -2.06610000      -0.61870000      -2.28130000        1 
H      -3.91510000      -0.34060000      -2.24850000        1 
