28
Properties=species:S:1:pos:R:3:Z:I:1 pbc="F F F"
O      -0.75370000      -0.50130000      -0.53630000        8 
C      -2.81960000      -0.11800000       0.66430000        6 
C       2.55220000       0.13120000      -0.10160000        6 
C      -1.34360000       0.26810000       0.47300000        6 
C      -2.95960000      -1.58090000       1.10370000        6 
C      -3.63380000       0.14770000      -0.60820000        6 
C       2.73680000       1.47050000       0.61550000        6 
C       3.87710000      -0.35680000      -0.69610000        6 
C       1.48550000       0.26030000      -1.18860000        6 
H      -3.23510000       0.52190000       1.47410000        1 
H       2.20100000      -0.61750000       0.64170000        1 
H      -1.27120000       1.34500000       0.20550000        1 
H      -0.79080000       0.11340000       1.42530000        1 
H       3.09420000       2.24970000      -0.09200000        1 
H       3.47700000       1.36530000       1.43720000        1 
H       1.77270000       1.80200000       1.05740000        1 
H       4.63420000      -0.47960000       0.10750000        1 
H       4.26290000       0.36830000      -1.44490000        1 
H       3.73430000      -1.34140000      -1.19050000        1 
H      -2.38590000      -1.75650000       2.03870000        1 
H      -4.02630000      -1.81840000       1.30350000        1 
H      -2.58320000      -2.26850000       0.31630000        1 
H      -4.70760000      -0.07160000      -0.42640000        1 
H      -3.27730000      -0.48860000      -1.44640000        1 
H      -3.54470000       1.21480000      -0.90400000        1 
H       1.80070000       0.97640000      -1.97800000        1 
H       1.26830000      -0.72890000      -1.64510000        1 
H       0.43550000      -0.10660000      -0.60610000        1 
