8
Properties=species:S:1:pos:R:3:Z:I:1 pbc="F F F"
C      -1.35120000       0.68890000       0.20500000        6 
C       1.25340000      -0.43070000      -0.15580000        6 
C       2.27350000      -1.05300000      -0.31360000        6 
H      -1.65000000       0.30430000       1.20180000        1 
H      -1.83740000       1.66990000       0.02620000        1 
H      -1.66840000      -0.02930000      -0.57880000        1 
H      -0.18910000       0.44940000       0.06740000        1 
H       3.16930000      -1.59950000      -0.45210000        1 
