11
Properties=species:S:1:pos:R:3:Z:I:1 pbc="F F F"
O      -1.16730000      -0.85620000       0.03030000        8 
O      -0.19310000      -0.68370000      -0.84320000        8 
C      -1.94070000       0.31210000      -0.02110000        6 
C       2.00160000      -0.08330000       0.21210000        6 
H      -2.36340000       0.45720000      -1.03980000        1 
H      -1.33330000       1.19720000       0.27050000        1 
H      -2.78300000       0.21750000       0.69460000        1 
H       2.58380000       0.20410000      -0.68750000        1 
H       2.41800000      -1.01900000       0.63860000        1 
H       2.06360000       0.72700000       0.96730000        1 
H       0.71400000      -0.47290000      -0.22190000        1 
