6
Properties=species:S:1:pos:R:3:Z:I:1 pbc="F F F"
O       1.40620000      -0.17600000       0.05940000        8 
C      -1.10540000      -0.16830000      -0.17480000        6 
H       0.08120000      -0.42350000      -0.16290000        1 
H      -1.27160000       0.79300000      -0.70300000        1 
H      -1.47650000      -0.08660000       0.86750000        1 
H       2.36600000       0.06150000       0.11360000        1 
