5
Properties=species:S:1:pos:R:3:Z:I:1 pbc="F F F"
C      -0.47130000      -0.01480000       0.33820000        6 
H       0.79480000       0.06590000      -0.14690000        1 
H      -0.96710000      -0.91900000      -0.07070000        1 
H      -1.04120000       0.88790000       0.03630000        1 
H       1.68470000      -0.02000000      -0.15690000        1 
