10
Properties=species:S:1:pos:R:3:Z:I:1 pbc="F F F"
O       0.60930000      -0.91370000      -0.28390000        8 
C       1.62740000      -0.07250000       0.16910000        6 
C      -1.61850000       0.14240000      -0.17800000        6 
H       1.73580000       0.79300000      -0.51820000        1 
H       1.39080000       0.28950000       1.19200000        1 
H       2.58290000      -0.63550000       0.19600000        1 
H      -2.13900000      -0.82100000      -0.00010000        1 
H      -1.68070000       0.77040000       0.73440000        1 
H      -2.10070000       0.67230000      -1.02510000        1 
H      -0.40730000      -0.22500000      -0.28610000        1 
