7
Properties=species:S:1:pos:R:3:Z:I:1 pbc="F F F"
O       1.72670000       0.11630000      -0.10000000        8 
C      -0.77010000       0.13320000       0.21480000        6 
H      -0.99620000      -0.46200000       1.12330000        1 
H      -1.18490000       1.15570000       0.32980000        1 
H      -1.22820000      -0.35430000      -0.67020000        1 
H       0.38270000      -0.11250000      -0.08260000        1 
H       2.07000000      -0.47640000      -0.81510000        1 
