12
Properties=species:S:1:pos:R:3:Z:I:1 pbc="F F F"
C      -1.77370000      -0.97680000       0.33690000        6 
C      -1.48950000       0.42660000      -0.09260000        6 
C      -0.30730000       0.74510000      -0.61730000        6 
C       2.44260000       0.34700000      -0.07020000        6 
C       3.58140000      -0.01940000       0.07710000        6 
H      -2.80380000      -1.04150000       0.74550000        1 
H      -1.05480000      -1.28540000       1.12520000        1 
H      -1.68790000      -1.66420000      -0.53110000        1 
H      -2.25180000       1.19130000       0.02390000        1 
H      -0.09970000       1.76340000      -0.92950000        1 
H       0.86300000       0.85530000      -0.27450000        1 
H       4.58140000      -0.34120000       0.20650000        1 
