16
Properties=species:S:1:pos:R:3:Z:I:1 pbc="F F F"
O      -2.28220000      -0.18410000      -0.89950000        8 
C      -1.24860000       0.30540000      -0.08950000        6 
C      -1.63480000       0.20620000       1.38060000        6 
C       1.97700000      -0.94320000      -0.95660000        6 
C       2.52430000       0.26650000      -0.41110000        6 
C       0.79770000      -1.38210000      -0.54210000        6 
C       2.98530000       1.28230000       0.04620000        6 
H      -0.24100000      -0.36920000      -0.28340000        1 
H      -1.01320000       1.36200000      -0.35100000        1 
H      -2.53220000       0.82840000       1.58290000        1 
H      -1.85410000      -0.85000000       1.64420000        1 
H      -0.79600000       0.56820000       2.01140000        1 
H       2.53130000      -1.49300000      -1.70610000        1 
H      -2.98030000       0.52150000      -0.92610000        1 
H       0.37710000      -2.29300000      -0.94760000        1 
H       3.38990000       2.17400000       0.44770000        1 
