17
Properties=species:S:1:pos:R:3:Z:I:1 pbc="F F F"
O       2.45450000      -2.25580000       0.67590000        8 
C       0.50440000       0.48820000      -0.31340000        6 
C      -0.60320000      -0.14960000      -1.16310000        6 
C       0.02130000       1.70980000       0.46590000        6 
C      -1.65930000      -0.85600000      -0.31480000        6 
C       1.99940000      -1.18660000       1.04570000        6 
H       1.00050000      -0.40840000       0.53360000        1 
H       1.32740000       0.80740000      -0.98900000        1 
H      -1.08950000       0.62030000      -1.80090000        1 
H      -0.13800000      -0.90120000      -1.83680000        1 
H      -0.71430000       1.41280000       1.24140000        1 
H       0.88590000       2.18580000       0.97430000        1 
H      -0.43960000       2.45220000      -0.21980000        1 
H      -2.23220000      -0.12310000       0.29020000        1 
H      -1.18370000      -1.60090000       0.35800000        1 
H      -2.37210000      -1.38680000      -0.98050000        1 
H       2.23840000      -0.80810000       2.03340000        1 
