22
Properties=species:S:1:pos:R:3:Z:I:1 pbc="F F F"
C      -1.45310000       0.40550000      -0.53320000        6 
C      -0.03690000       0.96200000      -0.35970000        6 
C      -1.55720000      -0.40230000      -1.83070000        6 
C      -2.48450000       1.53880000      -0.51790000        6 
C       2.73570000      -0.71640000       2.31380000        6 
C       2.33920000      -1.54820000       1.13680000        6 
C       1.57740000      -1.03340000       0.17280000        6 
H      -1.66680000      -0.27470000       0.32040000        1 
H       0.80230000       0.01070000      -0.34000000        1 
H       0.04280000       1.51420000       0.60110000        1 
H       0.21990000       1.65110000      -1.19300000        1 
H      -0.82970000      -1.24180000      -1.81860000        1 
H      -2.57690000      -0.83100000      -1.93360000        1 
H      -1.34800000       0.24140000      -2.71220000        1 
H      -2.30570000       2.24410000      -1.35800000        1 
H      -2.42380000       2.09860000       0.43980000        1 
H      -3.51070000       1.12340000      -0.61040000        1 
H       3.36520000      -1.31830000       3.00210000        1 
H       3.31730000       0.16720000       1.97550000        1 
H       1.83070000      -0.37590000       2.86020000        1 
H       2.67420000      -2.57890000       1.06700000        1 
H       1.28890000      -1.63610000      -0.68210000        1 
