17
Properties=species:S:1:pos:R:3:Z:I:1 pbc="F F F"
C      -0.36420000       0.13550000      -0.27950000        6 
C      -0.47670000       1.62310000      -0.58940000        6 
C      -1.58630000      -0.34300000       0.45510000        6 
C      -2.38670000      -1.28950000      -0.04350000        6 
C       2.86130000      -0.86620000       0.58360000        6 
C       2.05930000       0.17720000       0.77540000        6 
H       0.58860000      -0.04900000       0.40420000        1 
H      -0.21910000      -0.42260000      -1.23060000        1 
H      -1.35960000       1.81560000      -1.23600000        1 
H      -0.57480000       2.20700000       0.35070000        1 
H       0.43640000       1.96090000      -1.12310000        1 
H      -1.82100000       0.09170000       1.42250000        1 
H      -2.18420000      -1.74840000      -1.00640000        1 
H      -3.25880000      -1.61140000       0.51630000        1 
H       3.37240000      -0.99840000      -0.36450000        1 
H       3.00600000      -1.58940000       1.37850000        1 
H       1.90740000       0.90690000      -0.01330000        1 
