24
Properties=species:S:1:pos:R:3:Z:I:1 pbc="F F F"
O      -0.30820000      -0.96230000       0.86190000        8 
C      -1.48930000      -0.56420000       0.22100000        6 
C      -1.50780000       0.97160000       0.09760000        6 
C      -2.68090000      -1.09040000       1.02450000        6 
C      -2.64620000       1.48220000      -0.78610000        6 
C       3.57490000      -0.27000000       0.13000000        6 
C       2.46510000      -0.37330000      -0.83010000        6 
C       4.49380000       0.68470000       0.01850000        6 
C       1.54620000      -1.32620000      -0.72050000        6 
H      -1.52330000      -1.02100000      -0.79450000        1 
H      -1.58430000       1.43600000       1.10500000        1 
H      -0.54850000       1.30660000      -0.35370000        1 
H      -3.62970000       1.29920000      -0.30630000        1 
H      -2.53450000       2.57690000      -0.93510000        1 
H      -2.61970000       0.98670000      -1.77980000        1 
H      -2.72510000      -0.60390000       2.02240000        1 
H      -3.63240000      -0.90710000       0.48360000        1 
H      -2.57880000      -2.18690000       1.16960000        1 
H       3.65190000      -0.98030000       0.94510000        1 
H       2.38390000       0.33400000      -1.64610000        1 
H       5.30240000       0.74330000       0.73550000        1 
H       4.45170000       1.41320000      -0.78190000        1 
H       0.56010000      -0.88920000       0.04350000        1 
H       1.57880000      -2.05960000       0.07590000        1 
