7
Properties=species:S:1:pos:R:3:Z:I:1 pbc="F F F"
O       2.57610000       0.31710000       0.00130000        8 
C      -0.90660000       0.03890000       0.01980000        6 
C       1.66180000      -0.47280000      -0.16370000        6 
H      -1.07730000       1.10820000      -0.22130000        1 
H      -1.26780000      -0.59150000      -0.81850000        1 
H      -1.45920000      -0.22420000       0.94510000        1 
H       0.47300000      -0.17570000       0.23730000        1 
