19
Properties=species:S:1:pos:R:3:Z:I:1 pbc="F F F"
C      -0.72030000       0.36170000      -0.67450000        6 
C      -1.57560000      -0.44020000      -1.65130000        6 
C      -1.17500000       0.16620000       0.74530000        6 
C      -2.33920000       0.65210000       1.18610000        6 
C       2.74610000      -0.64010000      -0.02720000        6 
C       2.62050000       0.02850000       1.23680000        6 
C       1.85580000      -0.42050000      -0.98340000        6 
C       2.51640000       0.58930000       2.29900000        6 
H       0.40530000      -0.00310000      -0.76990000        1 
H      -0.75650000       1.44100000      -0.93780000        1 
H      -1.18080000      -0.31030000      -2.68080000        1 
H      -1.54430000      -1.52010000      -1.39230000        1 
H      -2.62840000      -0.08730000      -1.63010000        1 
H      -0.52620000      -0.36270000       1.43700000        1 
H       3.56940000      -1.32240000      -0.19410000        1 
H      -2.63270000       0.50360000       2.22010000        1 
H      -3.00190000       1.20270000       0.52530000        1 
H       1.94220000      -0.92000000      -1.93960000        1 
H       2.42500000       1.08160000       3.23140000        1 
