19
Properties=species:S:1:pos:R:3:Z:I:1 pbc="F F F"
O       0.59360000      -1.08710000      -2.11050000        8 
O       3.75450000       1.44670000       2.13620000        8 
C      -0.79540000      -0.79390000      -0.16060000        6 
C      -1.00420000       0.71740000      -0.31820000        6 
C       0.55750000      -1.24140000      -0.71810000        6 
C      -2.33270000       1.15540000       0.29150000        6 
C       2.55340000      -0.31350000       0.75410000        6 
C       3.16930000       0.58920000       1.46290000        6 
H      -0.17920000       1.26560000       0.18700000        1 
H      -1.00070000       0.98930000      -1.39580000        1 
H      -1.60790000      -1.34450000      -0.68370000        1 
H      -0.83490000      -1.05920000       0.91840000        1 
H       1.50170000      -0.59160000      -0.16080000        1 
H       0.70380000      -2.31640000      -0.48060000        1 
H      -3.17720000       0.63750000      -0.21120000        1 
H      -2.35420000       0.92360000       1.37770000        1 
H      -2.45890000       2.25070000       0.16000000        1 
H       1.02240000      -0.20970000      -2.28360000        1 
H       1.88900000      -1.01810000       1.23540000        1 
