22
Properties=species:S:1:pos:R:3:Z:I:1 pbc="F F F"
O      -3.28200000       0.70110000       1.36190000        8 
C      -1.19110000      -0.24400000       0.68420000        6 
C      -0.23540000      -0.51250000      -0.48740000        6 
C      -2.51960000       0.36920000       0.23530000        6 
C      -0.69730000      -1.66720000      -1.37470000        6 
C       2.55170000       0.29660000       0.96540000        6 
C       3.25940000       1.46090000       0.50540000        6 
C       2.30150000      -0.71670000       0.14590000        6 
C       3.85260000       2.43740000       0.12070000        6 
H       0.87690000      -0.80360000      -0.02290000        1 
H      -0.11400000       0.40580000      -1.10230000        1 
H      -1.38180000      -1.18660000       1.24230000        1 
H      -0.69220000       0.46420000       1.38080000        1 
H      -3.08260000      -0.36080000      -0.38650000        1 
H      -2.32470000       1.28650000      -0.36470000        1 
H      -1.63020000      -1.40110000      -1.91340000        1 
H       0.08760000      -1.88670000      -2.12830000        1 
H      -0.86700000      -2.58040000      -0.76580000        1 
H       2.21910000       0.24670000       1.99310000        1 
H      -4.12410000       1.09790000       1.01770000        1 
H       2.61960000      -0.70130000      -0.88970000        1 
H       4.37340000       3.29460000      -0.21700000        1 
