21
Properties=species:S:1:pos:R:3:Z:I:1 pbc="F F F"
C       2.30650000      -0.70390000       0.53010000        6 
C       1.21390000      -1.69570000       0.14810000        6 
C       2.30870000       0.48440000      -0.39120000        6 
C      -3.25020000       0.25560000      -0.33760000        6 
C      -1.98080000       0.28260000       0.40560000        6 
C       3.18940000       1.47460000      -0.22930000        6 
C      -3.98330000       1.35500000      -0.48620000        6 
C      -1.24710000      -0.81450000       0.55520000        6 
H       3.29330000      -1.21320000       0.48020000        1 
H       2.13420000      -0.36160000       1.57330000        1 
H       0.07680000      -1.13670000       0.21330000        1 
H       1.37990000      -2.07420000      -0.88330000        1 
H       1.22960000      -2.55600000       0.85000000        1 
H       1.58900000       0.54970000      -1.20320000        1 
H      -3.60070000      -0.67230000      -0.77450000        1 
H      -1.62640000       1.20720000       0.84390000        1 
H      -3.66720000       2.30140000      -0.06470000        1 
H      -4.91430000       1.31390000      -1.03660000        1 
H       3.17940000       2.32620000      -0.90170000        1 
H       3.92310000       1.44360000       0.57080000        1 
H      -1.55370000      -1.76580000       0.13790000        1 
