12
Properties=species:S:1:pos:R:3:Z:I:1 pbc="F F F"
O      -1.40590000      -0.82890000       0.53630000        8 
O      -0.57570000      -1.13070000      -0.44440000        8 
C      -2.28870000       0.12620000       0.01250000        6 
C       2.43330000       0.67620000      -0.07950000        6 
C       1.77930000      -0.48180000      -0.07310000        6 
H      -1.73680000       1.03980000      -0.30050000        1 
H      -3.01690000       0.41230000       0.79900000        1 
H      -2.85320000      -0.29370000      -0.84920000        1 
H       3.10210000       0.93300000       0.73570000        1 
H       2.29810000       1.36820000      -0.90330000        1 
H       1.90720000      -1.18160000       0.74630000        1 
H       0.35720000      -0.63920000      -0.17990000        1 
