23
Properties=species:S:1:pos:R:3:Z:I:1 pbc="F F F"
O      -0.51270000      -2.04950000      -1.05520000        8 
C      -1.94980000      -0.13130000      -0.73200000        6 
C      -0.51540000      -0.65410000      -0.91720000        6 
C      -2.56080000      -0.64020000       0.58010000        6 
C      -1.96530000       1.40130000      -0.76370000        6 
C       3.86260000       0.46520000       0.87240000        6 
C       2.59940000      -0.27390000       0.54630000        6 
C       1.40040000       0.30870000       0.61060000        6 
H      -2.57350000      -0.50020000      -1.57640000        1 
H       0.19270000      -0.30480000       0.02330000        1 
H      -0.08070000      -0.21830000      -1.84230000        1 
H      -3.59120000      -0.24310000       0.70230000        1 
H      -1.94780000      -0.31870000       1.44950000        1 
H      -2.62390000      -1.74880000       0.57370000        1 
H      -3.00590000       1.77680000      -0.66110000        1 
H      -1.56180000       1.76940000      -1.73120000        1 
H      -1.35030000       1.81720000       0.06340000        1 
H       4.52930000       0.45910000      -0.01470000        1 
H       4.37760000      -0.04400000       1.71320000        1 
H       3.66210000       1.51930000       1.16170000        1 
H       2.66140000      -1.31530000       0.24850000        1 
H      -0.33130000      -2.42280000      -0.15410000        1 
H       1.28500000       1.34790000       0.90300000        1 
