20
Properties=species:S:1:pos:R:3:Z:I:1 pbc="F F F"
O      -0.84670000       0.59400000      -1.46970000        8 
C      -0.54120000       0.09140000      -0.19260000        6 
C      -1.59190000      -0.93780000       0.26680000        6 
C       0.86490000      -0.51490000      -0.18500000        6 
C      -2.98580000      -0.32070000       0.36060000        6 
C       3.18740000       1.05770000       0.72840000        6 
C       2.53980000       1.47670000      -0.35490000        6 
H      -0.54220000       0.94290000       0.52210000        1 
H      -1.62060000      -1.79550000      -0.44040000        1 
H      -1.31270000      -1.32890000       1.26970000        1 
H      -2.98370000       0.53170000       1.07280000        1 
H      -3.70580000      -1.08410000       0.72370000        1 
H      -3.32190000       0.03440000      -0.63660000        1 
H       1.70410000       0.35410000      -0.57300000        1 
H       0.91720000      -1.39240000      -0.86450000        1 
H       1.13930000      -0.83630000       0.84240000        1 
H       2.67220000       1.01150000       1.68140000        1 
H       4.22940000       0.76160000       0.66440000        1 
H      -0.84760000      -0.17220000      -2.10180000        1 
H       3.04570000       1.52690000      -1.31360000        1 
