15
Properties=species:S:1:pos:R:3:Z:I:1 pbc="F F F"
C      -2.50110000       1.56530000      -0.72640000        6 
C       1.29780000      -1.58430000       0.69970000        6 
C      -1.53850000       0.43280000      -0.90610000        6 
C       2.62400000      -0.97140000       0.62070000        6 
C      -0.66420000       0.11070000       0.04800000        6 
C       3.71660000      -0.46640000       0.55550000        6 
H      -3.13550000       1.66430000      -1.63190000        1 
H      -1.94550000       2.51440000      -0.57160000        1 
H      -3.15450000       1.37220000       0.15060000        1 
H       0.45450000      -0.81040000       0.21550000        1 
H       1.29550000      -2.53650000       0.13040000        1 
H       1.04660000      -1.78750000       1.76110000        1 
H      -1.54900000      -0.13910000      -1.82810000        1 
H      -0.62260000       0.65890000       0.98450000        1 
H       4.67580000      -0.02290000       0.49820000        1 
