17
Properties=species:S:1:pos:R:3:Z:I:1 pbc="F F F"
C      -0.92800000      -0.43760000       0.00670000        6 
C       0.08020000       0.69490000      -0.13900000        6 
C      -2.31700000       0.05070000      -0.30150000        6 
C      -3.29780000       0.01330000       0.60510000        6 
C       3.56630000      -0.28080000      -0.54750000        6 
C       2.59840000      -0.07290000       0.34050000        6 
H      -0.66800000      -1.25060000      -0.70360000        1 
H      -0.86200000      -0.84770000       1.03820000        1 
H       1.24360000       0.25810000       0.11730000        1 
H       0.06960000       1.09200000      -1.17670000        1 
H      -0.15750000       1.51550000       0.57150000        1 
H      -2.52850000       0.44110000      -1.29280000        1 
H      -4.28850000       0.37250000       0.34620000        1 
H      -3.12530000      -0.37080000       1.60580000        1 
H       3.46250000       0.09820000      -1.55820000        1 
H       4.46030000      -0.82800000      -0.26650000        1 
H       2.69190000      -0.44780000       1.35450000        1 
