12
Properties=species:S:1:pos:R:3:Z:I:1 pbc="F F F"
O       2.64040000       0.44120000      -0.72750000        8 
C      -1.10970000       0.43320000       0.53860000        6 
C      -1.06070000      -1.02700000       0.30370000        6 
C      -0.27610000       1.32180000      -0.00530000        6 
C      -0.17870000      -1.64510000      -0.48080000        6 
C       2.02040000      -0.22930000       0.08060000        6 
H      -1.88200000       0.80150000       1.20230000        1 
H      -1.79710000      -1.63880000       0.80750000        1 
H       0.52070000       1.03960000      -0.67710000        1 
H      -0.39100000       2.37260000       0.22710000        1 
H       0.59780000      -1.13360000      -1.02990000        1 
H       0.91580000      -0.73600000      -0.23910000        1 
