20
Properties=species:S:1:pos:R:3:Z:I:1 pbc="F F F"
C       1.60770000      -0.35720000      -0.41730000        6 
C       0.49600000      -0.49060000       0.61530000        6 
C      -3.28630000       0.85730000       0.31060000        6 
C       2.94070000      -0.19780000       0.26120000        6 
C      -2.99020000      -0.24770000      -0.65170000        6 
C       3.69680000       0.89030000       0.08940000        6 
C      -1.87070000      -0.96040000      -0.53660000        6 
H       1.63280000      -1.27210000      -1.04620000        1 
H       1.38310000       0.50860000      -1.07810000        1 
H      -0.61590000      -0.63200000       0.02070000        1 
H       0.44830000       0.42060000       1.24940000        1 
H       0.67050000      -1.37870000       1.25990000        1 
H      -2.48850000       1.62830000       0.26040000        1 
H      -3.34680000       0.45480000       1.34390000        1 
H      -4.25740000       1.32850000       0.05150000        1 
H       3.30010000      -0.99420000       0.90660000        1 
H      -3.69230000      -0.47100000      -1.44960000        1 
H       4.65440000       0.96960000       0.59370000        1 
H       3.37220000       1.70660000      -0.54860000        1 
H      -1.65460000      -1.76290000      -1.23440000        1 
