19
Properties=species:S:1:pos:R:3:Z:I:1 pbc="F F F"
C      -1.33670000      -0.25970000      -0.03390000        6 
C      -0.25230000      -1.33460000       0.08210000        6 
C      -1.40090000       0.57850000       1.24700000        6 
C      -1.07810000       0.63450000      -1.25080000        6 
C       2.65070000       0.62570000      -0.20880000        6 
C       2.28210000      -0.62130000       0.06990000        6 
H      -2.31810000      -0.76490000      -0.17210000        1 
H       0.88720000      -0.79960000       0.24140000        1 
H      -0.23150000      -1.95920000      -0.83640000        1 
H      -0.46200000      -1.99910000       0.94740000        1 
H      -1.62080000      -0.07260000       2.11990000        1 
H      -0.43630000       1.10160000       1.42330000        1 
H      -2.21030000       1.33540000       1.16870000        1 
H      -1.88520000       1.39180000      -1.34750000        1 
H      -0.10330000       1.15930000      -1.15300000        1 
H      -1.06530000       0.02380000      -2.17880000        1 
H       3.65580000       0.96480000       0.02020000        1 
H       1.94370000       1.30810000      -0.66750000        1 
H       2.98150000      -1.31250000       0.52890000        1 
