17
Properties=species:S:1:pos:R:3:Z:I:1 pbc="F F F"
O      -3.41920000       0.64100000       0.76830000        8 
C      -1.82480000      -0.80000000      -0.19070000        6 
C      -1.21680000       1.46980000       0.92330000        6 
C      -2.23860000       0.45180000       0.51890000        6 
C       1.46760000      -0.36150000      -0.88370000        6 
C       2.89770000      -0.25940000      -0.77280000        6 
C       0.77680000      -1.15790000      -0.07770000        6 
C       4.09670000      -0.17310000      -0.68080000        6 
H      -0.58820000      -0.82340000      -0.36020000        1 
H      -2.12050000      -1.68480000       0.41110000        1 
H      -2.32300000      -0.84890000      -1.18150000        1 
H      -1.70000000       2.32910000       1.43580000        1 
H      -0.68550000       1.84280000       0.02290000        1 
H      -0.48300000       1.00680000       1.61570000        1 
H       0.94850000       0.21880000      -1.63410000        1 
H       1.26330000      -1.75380000       0.68530000        1 
H       5.14910000      -0.09730000      -0.59980000        1 
