16
Properties=species:S:1:pos:R:3:Z:I:1 pbc="F F F"
C      -1.63250000       0.01120000      -0.19180000        6 
C      -0.64370000      -0.80760000      -1.01430000        6 
C      -1.34220000      -0.11030000       1.30060000        6 
C       2.81920000       0.24590000       0.33110000        6 
C       1.87120000       0.02490000      -0.57650000        6 
H      -1.56250000       1.07840000      -0.49320000        1 
H      -2.66500000      -0.34560000      -0.39600000        1 
H       0.53970000      -0.40000000      -0.80630000        1 
H      -0.71500000      -1.88310000      -0.74550000        1 
H      -0.87490000      -0.69460000      -2.09450000        1 
H      -2.07630000       0.49580000       1.87210000        1 
H      -1.42670000      -1.16940000       1.62520000        1 
H      -0.32070000       0.26290000       1.52690000        1 
H       3.25560000       1.23330000       0.44150000        1 
H       3.25560000       1.23330000       0.44150000        1 
H       1.51840000       0.82480000      -1.22060000        1 
