17
Properties=species:S:1:pos:R:3:Z:I:1 pbc="F F F"
C      -0.04900000       0.79810000      -0.48740000        6 
C      -2.36390000       0.81920000       0.73310000        6 
C      -1.30720000       0.09450000      -0.05650000        6 
C      -1.48750000      -1.19320000      -0.37880000        6 
C       3.44690000      -0.32280000       0.00720000        6 
C       2.14610000      -0.58170000       0.10490000        6 
H       0.91450000       0.23120000      -0.02160000        1 
H       0.02510000       0.78990000      -1.59550000        1 
H      -0.03480000       1.85330000      -0.14340000        1 
H      -2.51320000       0.31520000       1.71150000        1 
H      -2.07660000       1.87420000       0.92380000        1 
H      -3.32200000       0.81380000       0.17150000        1 
H      -0.73710000      -1.73470000      -0.94750000        1 
H      -2.38770000      -1.72110000      -0.07770000        1 
H       4.16450000      -1.13450000      -0.05650000        1 
H       3.79340000       0.70450000      -0.00900000        1 
H       1.78850000      -1.60610000       0.12200000        1 
