15
Properties=species:S:1:pos:R:3:Z:I:1 pbc="F F F"
O       2.15500000      -1.09070000       0.12760000        8 
O       1.52530000      -0.89570000      -1.01590000        8 
C      -2.68420000       0.48470000       0.50840000        6 
C       2.94700000       0.04850000       0.32950000        6 
C      -1.62750000       0.45410000      -0.55160000        6 
C      -0.93300000      -0.65620000      -0.80370000        6 
H      -2.23750000       0.24470000       1.49640000        1 
H      -3.13750000       1.49690000       0.55570000        1 
H      -3.47920000      -0.25420000       0.27290000        1 
H       3.50630000      -0.06640000       1.28070000        1 
H       3.68340000       0.16460000      -0.49610000        1 
H       2.31200000       0.95860000       0.40640000        1 
H      -1.41940000       1.34970000      -1.12790000        1 
H      -1.11170000      -1.57240000      -0.24880000        1 
H       0.50100000      -0.66610000      -0.73350000        1 
