24
Properties=species:S:1:pos:R:3:Z:I:1 pbc="F F F"
O      -0.82230000       0.30380000       1.34960000        8 
C      -1.42070000      -0.09480000       0.14230000        6 
C      -2.86450000      -0.52240000       0.44120000        6 
C      -0.64470000      -1.28260000      -0.45240000        6 
C      -1.42730000       1.08430000      -0.84590000        6 
C       2.88830000      -0.30940000      -0.16550000        6 
C       2.10590000      -0.06690000       1.06200000        6 
C       3.07430000       0.60720000      -1.11660000        6 
C       1.51710000       1.09660000       1.32230000        6 
H      -3.38090000      -0.84760000      -0.48790000        1 
H      -3.43330000       0.32280000       0.88530000        1 
H      -2.87540000      -1.36490000       1.16590000        1 
H       0.39970000      -0.98800000      -0.69070000        1 
H      -0.61140000      -2.12320000       0.27360000        1 
H      -1.12930000      -1.63930000      -1.38700000        1 
H      -1.93570000       0.80000000      -1.79250000        1 
H      -1.95940000       1.95410000      -0.40420000        1 
H      -0.38930000       1.39840000      -1.08750000        1 
H       3.33370000      -1.28760000      -0.29620000        1 
H       2.01010000      -0.87340000       1.77800000        1 
H       2.65320000       1.60140000      -1.04010000        1 
H       3.66020000       0.36200000      -1.99290000        1 
H       0.30010000       0.63420000       1.10470000        1 
H       0.95150000       1.23530000       2.23450000        1 
