19
Properties=species:S:1:pos:R:3:Z:I:1 pbc="F F F"
O      -0.44410000       2.16750000       0.20710000        8 
O       3.63600000       1.55560000       1.06810000        8 
C      -0.37050000      -0.23030000      -0.10310000        6 
C      -0.94750000       1.11570000      -0.57330000        6 
C      -0.83760000      -0.57320000       1.31710000        6 
C      -0.76270000      -1.34880000      -1.07500000        6 
C       2.28260000      -0.16080000      -0.22560000        6 
C       2.97660000       0.71940000       0.43780000        6 
H       0.88570000      -0.14490000      -0.09620000        1 
H      -2.06270000       1.09550000      -0.55020000        1 
H      -0.64130000       1.29690000      -1.62570000        1 
H      -1.94680000      -0.62280000       1.36480000        1 
H      -0.47800000       0.19170000       2.03670000        1 
H      -0.42050000      -1.55390000       1.63000000        1 
H      -0.38360000      -1.12050000      -2.09370000        1 
H      -1.86750000      -1.46190000      -1.11840000        1 
H      -0.31440000      -2.31190000      -0.75050000        1 
H      -1.09080000       2.31570000       0.94540000        1 
H       2.78710000      -0.92920000      -0.79520000        1 
