10
Properties=species:S:1:pos:R:3:Z:I:1 pbc="F F F"
O       3.14130000      -0.54330000       0.11490000        8 
C      -1.26480000      -0.54470000       0.07900000        6 
C      -0.21630000       0.54370000      -0.05780000        6 
C       2.40960000       0.41850000      -0.04820000        6 
H      -0.96050000      -1.43120000      -0.51540000        1 
H      -2.24490000      -0.17450000      -0.28900000        1 
H      -1.35990000      -0.83780000       1.14520000        1 
H      -0.50940000       1.43140000       0.54140000        1 
H      -0.10900000       0.83640000      -1.12350000        1 
H       1.11380000       0.30140000       0.15320000        1 
