11
Properties=species:S:1:pos:R:3:Z:I:1 pbc="F F F"
O      -1.77810000      -0.41190000      -1.46070000        8 
O       3.38750000      -0.02960000       0.52230000        8 
C      -0.73190000      -0.51370000       0.64600000        6 
C      -1.81380000      -0.08140000      -0.28680000        6 
C       1.23200000       0.60090000      -0.66410000        6 
C       2.33730000       0.27760000      -0.05570000        6 
H       0.40820000      -0.06520000       0.22690000        1 
H      -0.92890000      -0.11340000       1.66250000        1 
H      -0.69730000      -1.62230000       0.69270000        1 
H      -2.63460000       0.52910000       0.07540000        1 
H       1.21960000       1.42980000      -1.35850000        1 
