13
Properties=species:S:1:pos:R:3:Z:I:1 pbc="F F F"
O      -1.00830000      -0.45250000      -0.19900000        8 
O       4.30000000      -0.07540000      -0.76920000        8 
C      -0.23440000       0.51720000       0.47020000        6 
C      -2.30260000       0.06030000      -0.42030000        6 
C       2.06930000      -0.70450000       0.26980000        6 
C       3.21320000      -0.38190000      -0.26300000        6 
H       0.93870000       0.03960000       0.66540000        1 
H      -0.12400000       1.43910000      -0.14340000        1 
H      -0.66730000       0.76210000       1.46590000        1 
H      -2.27300000       0.96440000      -1.06870000        1 
H      -2.90260000      -0.70990000      -0.94690000        1 
H      -2.81630000       0.28730000       0.54060000        1 
H       1.80740000      -1.74580000       0.39860000        1 
