11
Properties=species:S:1:pos:R:3:Z:I:1 pbc="F F F"
O       3.81880000      -0.24200000       0.09430000        8 
C      -1.81970000      -0.35240000       0.01230000        6 
C      -0.56900000       0.02360000      -0.72420000        6 
C       0.42880000       0.68560000      -0.13500000        6 
C       2.91450000       0.24980000       0.74810000        6 
H      -1.79400000      -0.01440000       1.07070000        1 
H      -1.93800000      -1.45570000      -0.00730000        1 
H      -2.69350000       0.11230000      -0.48970000        1 
H      -0.47150000      -0.25100000      -1.76930000        1 
H       0.38000000       0.98300000       0.90800000        1 
H       1.74360000       0.26110000       0.29210000        1 
