6
Properties=species:S:1:pos:R:3:Z:I:1 pbc="F F F"
O       1.61000000       0.34850000       0.18140000        8 
O      -1.71700000      -0.93620000       0.03540000        8 
C      -0.92710000      -0.00750000       0.06410000        6 
H      -1.26420000       0.99820000      -0.16140000        1 
H       0.23780000      -0.01620000       0.18620000        1 
H       2.06040000      -0.38680000      -0.30560000        1 
