10
Properties=species:S:1:pos:R:3:Z:I:1 pbc="F F F"
O      -0.86340000      -1.08110000       0.30790000        8 
O       2.63620000       1.95820000       0.18510000        8 
C      -1.74730000      -0.10080000      -0.14740000        6 
C       1.49810000      -0.31160000       0.11950000        6 
C       2.08170000       0.85230000       0.15310000        6 
H      -1.52560000       0.14370000      -1.20760000        1 
H      -1.65000000       0.81330000       0.47550000        1 
H      -2.78660000      -0.48150000      -0.07270000        1 
H       0.26850000      -0.58370000       0.19360000        1 
H       2.08830000      -1.20890000      -0.00700000        1 
