18
Properties=species:S:1:pos:R:3:Z:I:1 pbc="F F F"
O       4.26570000       1.13590000       0.91850000        8 
C       0.04700000      -0.15180000       0.31780000        6 
C      -0.93340000       0.57110000      -0.61610000        6 
C      -0.31610000      -1.61970000       0.53300000        6 
C      -2.30340000       0.79250000       0.02410000        6 
C       2.47390000       0.27480000      -0.66240000        6 
C       3.39270000       0.71640000       0.14830000        6 
H       1.21870000      -0.10240000      -0.21150000        1 
H       0.09730000       0.36870000       1.29890000        1 
H      -0.50270000       1.56260000      -0.87290000        1 
H      -1.05100000       0.00020000      -1.56260000        1 
H      -0.40910000      -2.14280000      -0.44230000        1 
H      -1.26790000      -1.71120000       1.09610000        1 
H       0.48530000      -2.11230000       1.12230000        1 
H      -2.93140000       1.40910000      -0.65290000        1 
H      -2.19820000       1.32670000       0.99220000        1 
H      -2.82060000      -0.17520000       0.18950000        1 
H       2.75310000      -0.14260000      -1.62010000        1 
