13
Properties=species:S:1:pos:R:3:Z:I:1 pbc="F F F"
C       1.66210000      -0.47160000      -0.99680000        6 
C       0.39300000      -0.71350000      -1.29920000        6 
C      -2.30320000       0.62120000       0.79950000        6 
C       2.00160000       0.25720000       0.19400000        6 
C      -1.88590000      -0.25840000      -0.10640000        6 
C       2.28750000       0.86860000       1.19290000        6 
H       2.45120000      -0.82360000      -1.64840000        1 
H      -0.58940000      -0.28600000      -0.50600000        1 
H       0.14420000      -1.26300000      -2.19770000        1 
H      -2.43420000       1.66130000       0.52220000        1 
H      -2.51370000       0.30400000       1.81580000        1 
H      -1.75150000      -1.30160000       0.16030000        1 
H       2.53830000       1.40530000       2.06980000        1 
