16
Properties=species:S:1:pos:R:3:Z:I:1 pbc="F F F"
C      -2.37370000       0.42320000      -0.39440000        6 
C      -1.82510000      -0.85520000       0.16140000        6 
C      -0.51520000      -1.11210000       0.16190000        6 
C       1.80590000       0.89940000       0.19390000        6 
C       2.46960000      -0.31380000       0.57880000        6 
C       0.93950000       0.89060000      -0.80830000        6 
C       3.02790000      -1.33190000       0.90330000        6 
H      -1.95740000       1.28850000       0.16350000        1 
H      -3.47930000       0.43040000      -0.29530000        1 
H      -2.10870000       0.51400000      -1.46900000        1 
H      -2.50540000      -1.59270000       0.57440000        1 
H       2.01650000       1.81840000       0.72530000        1 
H       0.35580000      -0.23400000      -0.33550000        1 
H       0.19750000      -0.39940000      -0.24230000        1 
H       0.43430000       1.80020000      -1.10570000        1 
H       3.51790000      -2.22570000       1.18800000        1 
