19
Properties=species:S:1:pos:R:3:Z:I:1 pbc="F F F"
O       2.04230000       1.39510000       0.33500000        8 
O      -3.98280000      -1.22450000       2.20280000        8 
C       1.64020000       0.23560000      -0.34890000        6 
C       0.20720000      -0.15070000       0.05760000        6 
C       2.61200000      -0.89440000      -0.01120000        6 
C      -0.81520000       0.89410000      -0.38210000        6 
C      -3.22590000      -0.11450000       0.04730000        6 
C      -3.61400000      -0.68370000       1.15260000        6 
H       1.68170000       0.39570000      -1.45290000        1 
H      -0.06500000      -1.12000000      -0.41410000        1 
H       0.14610000      -0.27400000       1.16090000        1 
H      -2.02300000       0.47470000      -0.07330000        1 
H      -0.63540000       1.85920000       0.13670000        1 
H      -0.76320000       1.04920000      -1.48080000        1 
H       3.64200000      -0.60570000      -0.31020000        1 
H       2.33450000      -1.81970000      -0.56000000        1 
H       2.60290000      -1.10240000       1.08040000        1 
H       1.79660000       2.17010000      -0.23480000        1 
H      -3.58100000      -0.48420000      -0.90490000        1 
