15
Properties=species:S:1:pos:R:3:Z:I:1 pbc="F F F"
C      -1.79380000       0.00430000       0.58110000        6 
C      -0.83980000      -0.95060000       0.00300000        6 
C      -2.85160000       0.42260000      -0.10760000        6 
C       2.27990000      -0.02930000      -0.23830000        6 
C       2.31460000       1.30020000      -0.20400000        6 
C       0.20900000      -1.35520000       0.70680000        6 
H      -1.63860000       0.37860000       1.58650000        1 
H      -0.98540000      -1.33120000      -1.00130000        1 
H      -3.04030000       0.07120000      -1.11470000        1 
H      -3.54260000       1.12690000       0.33730000        1 
H       1.14320000      -0.67440000       0.02410000        1 
H       3.17440000      -0.59440000      -0.47950000        1 
H       1.41790000       1.86060000       0.03750000        1 
H       3.23760000       1.82960000      -0.41690000        1 
H       0.91530000      -2.05890000       0.28600000        1 
