16
Properties=species:S:1:pos:R:3:Z:I:1 pbc="F F F"
O      -2.55530000      -0.06480000      -0.09540000        8 
C      -1.56120000      -0.24400000      -1.07740000        6 
C      -2.22420000       1.05430000       0.69400000        6 
C       1.85870000      -1.21250000      -0.24800000        6 
C       2.97830000      -0.43950000       0.21780000        6 
C       0.63640000      -0.99120000       0.21910000        6 
C       3.91760000       0.20790000       0.60760000        6 
H      -0.45120000      -0.41730000      -0.56440000        1 
H      -1.53330000       0.61780000      -1.78090000        1 
H      -1.80500000      -1.15160000      -1.66690000        1 
H      -2.17280000       1.98180000       0.08060000        1 
H      -3.02050000       1.19930000       1.45270000        1 
H      -1.26730000       0.89430000       1.23890000        1 
H       2.01540000      -1.98440000      -0.98890000        1 
H       0.44220000      -0.22640000       0.96160000        1 
H       4.74210000       0.77630000       0.94990000        1 
