17
Properties=species:S:1:pos:R:3:Z:I:1 pbc="F F F"
O      -2.19670000      -0.82150000      -0.52830000        8 
C       2.66700000      -0.82460000       0.67330000        6 
C      -1.37310000      -0.01710000      -1.34030000        6 
C      -2.58140000      -0.08360000       0.60880000        6 
C       2.17170000       0.54280000       0.32760000        6 
C       0.95930000       0.70790000      -0.19900000        6 
H       1.99750000      -1.29170000       1.42640000        1 
H       3.69070000      -0.75550000       1.09700000        1 
H       2.69760000      -1.45890000      -0.23790000        1 
H      -0.36480000       0.35130000      -0.72940000        1 
H      -1.93240000       0.86170000      -1.73180000        1 
H      -1.03850000      -0.61790000      -2.21070000        1 
H      -1.69890000       0.19130000       1.22840000        1 
H      -3.24380000      -0.71730000       1.23350000        1 
H      -3.15720000       0.82600000       0.32570000        1 
H       2.80430000       1.40710000       0.50690000        1 
H       0.59860000       1.70000000      -0.45040000        1 
