15
Properties=species:S:1:pos:R:3:Z:I:1 pbc="F F F"
O       3.61780000       1.44250000      -0.52320000        8 
C      -1.33540000      -0.66120000       0.43620000        6 
C      -2.24010000       0.51000000       0.07180000        6 
C      -0.27880000      -0.85630000      -0.61260000        6 
C       2.98850000       0.85350000       0.33940000        6 
C       1.01570000      -0.76010000      -0.31000000        6 
H      -0.87780000      -0.47040000       1.43250000        1 
H      -1.94500000      -1.58700000       0.50740000        1 
H      -3.01810000       0.63620000       0.85390000        1 
H      -1.64750000       1.44750000       0.00470000        1 
H      -2.74230000       0.32260000      -0.90150000        1 
H      -0.57440000      -1.08450000      -1.63260000        1 
H       1.87700000       0.33620000       0.06360000        1 
H       3.38810000       0.77610000       1.34460000        1 
H       1.77230000      -0.90510000      -1.07420000        1 
