14
Properties=species:S:1:pos:R:3:Z:I:1 pbc="F F F"
O       3.64010000       1.47190000      -1.18840000        8 
C      -1.99650000      -0.52910000      -0.34350000        6 
C      -0.79240000      -0.90330000       0.43090000        6 
C      -2.42700000       0.72020000      -0.52830000        6 
C       2.53480000      -0.27080000       0.29230000        6 
C       0.01890000      -0.04260000       1.04460000        6 
C       3.10160000       0.62290000      -0.46700000        6 
H      -2.56630000      -1.33390000      -0.79100000        1 
H      -0.55290000      -1.95570000       0.50430000        1 
H      -1.91860000       1.57960000      -0.11740000        1 
H      -3.32140000       0.89530000      -1.11210000        1 
H       1.26780000      -0.26300000       0.45050000        1 
H       3.13720000      -1.01920000       0.78870000        1 
H      -0.12510000       1.02760000       1.03660000        1 
