15
Properties=species:S:1:pos:R:3:Z:I:1 pbc="F F F"
O      -3.08410000      -1.10700000      -0.72960000        8 
C      -2.47530000       0.14980000      -0.78600000        6 
C       2.11260000       0.36740000       0.35540000        6 
C       0.74530000      -0.14960000       0.52140000        6 
C       3.15170000      -0.45630000       0.25540000        6 
C      -0.29390000       0.67150000       0.62140000        6 
H      -1.40550000       0.13140000      -0.16890000        1 
H      -3.14730000       0.91930000      -0.34820000        1 
H      -2.27410000       0.41050000      -1.84540000        1 
H       2.28430000       1.43680000       0.31300000        1 
H       0.56870000      -1.21720000       0.56430000        1 
H       4.14960000      -0.05570000       0.13380000        1 
H       3.02140000      -1.53100000       0.29320000        1 
H      -3.17840000      -1.31730000       0.23530000        1 
H      -0.17500000       1.74750000       0.58490000        1 
