10
Properties=species:S:1:pos:R:3:Z:I:1 pbc="F F F"
C       1.64760000      -0.18000000       0.09700000        6 
C      -1.84860000      -0.22120000      -0.01970000        6 
C      -0.89580000       0.68410000       0.18320000        6 
H       0.40010000       0.19830000       0.09490000        1 
H       2.18320000       0.30730000      -0.74360000        1 
H       2.12110000       0.11280000       1.05650000        1 
H       1.70010000      -1.28190000      -0.02030000        1 
H      -2.57240000      -0.08660000      -0.81700000        1 
H      -1.90350000      -1.09900000       0.61460000        1 
H      -0.83170000       1.56620000      -0.44560000        1 
