21
Properties=species:S:1:pos:R:3:Z:I:1 pbc="F F F"
C      -0.86770000      -0.27360000       0.21980000        6 
C      -1.16780000       0.52150000      -1.05490000        6 
C      -1.93920000      -1.34310000       0.45420000        6 
C      -0.76490000       0.66220000       1.42840000        6 
C       2.48870000      -0.38560000      -0.96980000        6 
C       2.72180000       0.84850000      -0.27480000        6 
C       1.41980000      -1.11440000      -0.68420000        6 
C       2.91900000       1.88540000       0.30800000        6 
H       0.20030000      -0.83010000       0.07800000        1 
H      -0.36710000       1.26990000      -1.23510000        1 
H      -1.20520000      -0.16120000      -1.93040000        1 
H      -2.14180000       1.04990000      -0.96860000        1 
H      -1.98130000      -2.03720000      -0.41190000        1 
H      -2.93830000      -0.87570000       0.58990000        1 
H      -1.69370000      -1.93680000       1.36040000        1 
H      -0.51210000       0.08080000       2.34050000        1 
H       0.03830000       1.41150000       1.26350000        1 
H      -1.72560000       1.19520000       1.59590000        1 
H       3.18880000      -0.71650000      -1.72590000        1 
H       1.23570000      -2.04620000      -1.20280000        1 
H       3.09200000       2.79550000       0.81970000        1 
