9
Properties=species:S:1:pos:R:3:Z:I:1 pbc="F F F"
O       2.45440000       0.80010000      -0.09090000        8 
C      -0.68670000      -0.18590000       0.48740000        6 
C      -1.63640000       0.38010000      -0.25220000        6 
C       1.85060000      -0.23100000      -0.33480000        6 
H       0.68090000      -0.03120000       0.12870000        1 
H      -0.94940000      -0.76680000       1.36560000        1 
H      -2.68150000       0.26550000       0.01660000        1 
H      -1.36770000       0.95950000      -1.12880000        1 
H       2.33570000      -1.19020000      -0.19150000        1 
