11
Properties=species:S:1:pos:R:3:Z:I:1 pbc="F F F"
C      -0.85450000      -0.50910000       0.24130000        6 
C       0.18220000       0.28120000      -0.44060000        6 
C      -2.04390000       0.01440000       0.52300000        6 
C       1.37090000      -0.23990000      -0.72290000        6 
H      -0.65310000      -1.53650000       0.52210000        1 
H      -0.01430000       1.30800000      -0.72310000        1 
H      -2.79290000      -0.58400000       1.02520000        1 
H      -2.28360000       1.03710000       0.25880000        1 
H       1.62110000      -1.26120000      -0.46320000        1 
H       3.05030000       1.04820000      -0.10220000        1 
H       2.41790000       0.44180000      -0.11850000        1 
