13
Properties=species:S:1:pos:R:3:Z:I:1 pbc="F F F"
O       3.42160000       1.06400000      -1.01280000        8 
C      -1.76320000       0.51640000       0.64460000        6 
C      -1.18450000       0.22080000      -0.70420000        6 
C       1.86790000      -0.52020000       0.22310000        6 
C      -0.50290000      -0.90240000      -0.93300000        6 
C       2.66460000       0.29220000      -0.41060000        6 
H      -0.95330000       0.56170000       1.40310000        1 
H      -2.49030000      -0.27410000       0.92690000        1 
H      -2.28760000       1.49450000       0.62050000        1 
H      -1.31990000       0.93090000      -1.51350000        1 
H       0.68720000      -0.72840000      -0.21640000        1 
H       2.20630000      -1.01810000       1.12140000        1 
H      -0.34590000      -1.63750000      -0.14920000        1 
