19
Properties=species:S:1:pos:R:3:Z:I:1 pbc="F F F"
O      -0.33440000      -1.81600000      -0.87370000        8 
O       3.08380000      -2.26620000       0.70000000        8 
C      -0.93940000      -0.61890000      -0.45980000        6 
C       0.02500000       0.55530000      -0.71640000        6 
C      -1.30000000      -0.74550000       1.02200000        6 
C      -0.62840000       1.92000000      -0.50190000        6 
C       2.10990000       0.07430000       0.85710000        6 
C       2.60930000      -1.12590000       0.77650000        6 
H      -1.88260000      -0.46080000      -1.03410000        1 
H       1.05640000       0.45250000       0.04590000        1 
H       0.37820000       0.50660000      -1.76960000        1 
H      -0.86440000       2.07730000       0.57050000        1 
H      -1.55710000       2.00690000      -1.10490000        1 
H       0.07550000       2.71770000      -0.81930000        1 
H      -1.91730000      -1.65540000       1.17950000        1 
H      -0.38240000      -0.82920000       1.64270000        1 
H      -1.89390000       0.12900000       1.35940000        1 
H      -0.40280000      -1.84630000      -1.86400000        1 
H       2.76470000       0.92460000       0.99020000        1 
