11
Properties=species:S:1:pos:R:3:Z:I:1 pbc="F F F"
O      -3.02470000       0.23670000      -1.03910000        8 
C       1.38070000      -0.62770000      -0.06690000        6 
C       0.17590000      -1.15840000      -0.22880000        6 
C       1.52520000       0.77140000       0.22510000        6 
C       1.64750000       1.94540000       0.47020000        6 
C      -2.25170000      -0.16200000      -0.18430000        6 
H       2.26330000      -1.24780000      -0.15430000        1 
H      -0.99070000      -0.35280000      -0.11620000        1 
H       0.07150000      -2.21290000      -0.44870000        1 
H       1.75470000       2.97610000       0.68530000        1 
H      -2.55170000      -0.16780000       0.85780000        1 
