22
Properties=species:S:1:pos:R:3:Z:I:1 pbc="F F F"
O      -2.07520000      -0.04210000      -1.61300000        8 
C      -0.74030000       0.15010000       0.40060000        6 
C      -1.53600000       0.87540000      -0.69960000        6 
C      -1.64400000      -0.78830000       1.21020000        6 
C      -0.06120000       1.16500000       1.32660000        6 
C       2.20440000      -1.38800000      -0.81600000        6 
C       2.63390000      -0.03280000      -1.01470000        6 
C       1.05870000      -1.63550000      -0.19850000        6 
C       2.99590000       1.10500000      -1.18230000        6 
H       0.12730000      -0.51510000      -0.12410000        1 
H      -2.36780000       1.45550000      -0.24490000        1 
H      -0.87820000       1.59710000      -1.23620000        1 
H      -2.46160000      -0.21870000       1.70220000        1 
H      -1.05040000      -1.31070000       1.99040000        1 
H      -2.09040000      -1.55970000       0.54780000        1 
H       0.62560000       1.81460000       0.74340000        1 
H      -0.81760000       1.80310000       1.83240000        1 
H       0.53830000       0.63700000       2.09850000        1 
H       2.81980000      -2.20380000      -1.17230000        1 
H      -1.32160000      -0.35800000      -2.17700000        1 
H       0.72670000      -2.65380000      -0.04410000        1 
H       3.31360000       2.10370000      -1.32940000        1 
