22
Properties=species:S:1:pos:R:3:Z:I:1 pbc="F F F"
O      -2.46250000      -1.80520000      -0.41580000        8 
C      -0.45930000      -0.52970000      -0.01390000        6 
C      -0.96780000       0.92030000       0.02280000        6 
C      -1.23910000      -1.42540000      -0.98170000        6 
C      -2.33170000       1.06020000       0.69730000        6 
C       3.09210000      -0.33480000       0.26470000        6 
C       3.33000000       1.04250000       0.59140000        6 
C       2.13210000      -0.65600000      -0.59000000        6 
C       3.53110000       2.19890000       0.86680000        6 
H      -0.23410000       1.52920000       0.59370000        1 
H      -1.01630000       1.33550000      -1.00720000        1 
H       0.72250000      -0.50350000      -0.38910000        1 
H      -0.47050000      -0.96990000       1.00730000        1 
H      -1.40650000      -0.89650000      -1.94660000        1 
H      -0.63340000      -2.33660000      -1.18350000        1 
H      -2.56660000       2.13690000       0.83340000        1 
H      -3.12770000       0.61330000       0.06680000        1 
H      -2.32620000       0.57120000       1.69460000        1 
H       3.69930000      -1.10700000       0.71890000        1 
H      -2.91820000      -2.36590000      -1.09600000        1 
H       1.94530000      -1.69160000      -0.84240000        1 
H       3.70760000       3.21400000       1.10860000        1 
