20
Properties=species:S:1:pos:R:3:Z:I:1 pbc="F F F"
O      -2.19780000       0.14010000       1.62440000        8 
C      -0.56470000       0.17740000      -0.16180000        6 
C      -1.69350000       0.91900000       0.57330000        6 
C       0.61890000      -0.10150000       0.77130000        6 
C      -1.07250000      -1.12340000      -0.79530000        6 
C       2.30730000       0.48500000      -0.84470000        6 
C       2.44620000      -0.83140000      -0.97250000        6 
H      -0.20200000       0.83620000      -0.98140000        1 
H      -1.30300000       1.88170000       0.97380000        1 
H      -2.51080000       1.15290000      -0.14560000        1 
H       1.56260000      -0.64440000       0.11970000        1 
H       0.32020000      -0.78000000       1.59900000        1 
H       0.99850000       0.84880000       1.20380000        1 
H      -0.25980000      -1.60620000      -1.37890000        1 
H      -1.91400000      -0.90890000      -1.48810000        1 
H      -1.42140000      -1.83390000      -0.01550000        1 
H       1.44680000       0.98200000      -1.27870000        1 
H       3.05070000       1.06550000      -0.30800000        1 
H      -2.91530000       0.67980000       2.04720000        1 
H       3.30340000      -1.33880000      -0.54210000        1 
