20
Properties=species:S:1:pos:R:3:Z:I:1 pbc="F F F"
O      -0.88290000      -1.26820000      -1.11610000        8 
C      -1.00640000      -0.31980000      -0.08350000        6 
C       0.07990000      -0.56190000       0.97930000        6 
C      -2.39290000      -0.48560000       0.55450000        6 
C      -0.87340000       1.10120000      -0.66060000        6 
C       2.85900000       0.64920000      -0.65790000        6 
C       2.57240000       0.04880000       0.49360000        6 
H       1.23350000      -0.41090000       0.47300000        1 
H      -0.02940000       0.15270000       1.82360000        1 
H       0.00670000      -1.59700000       1.37690000        1 
H      -3.18860000      -0.32600000      -0.20470000        1 
H      -2.50840000      -1.51170000       0.96560000        1 
H      -2.53870000       0.24500000       1.37950000        1 
H      -1.63960000       1.27060000      -1.44730000        1 
H      -1.00830000       1.86350000       0.13700000        1 
H       0.12970000       1.24490000      -1.11650000        1 
H       3.74630000       0.36940000      -1.21660000        1 
H       2.20310000       1.42290000      -1.04150000        1 
H       0.01610000      -1.16040000      -1.52490000        1 
H       3.22190000      -0.72670000       0.88660000        1 
