24
Properties=species:S:1:pos:R:3:Z:I:1 pbc="F F F"
O      -3.06070000       2.00540000       0.01720000        8 
C      -1.54290000       0.16920000      -0.37950000        6 
C      -1.60340000      -0.43230000       1.02980000        6 
C      -1.74920000       1.68590000      -0.36490000        6 
C      -1.32390000      -1.93160000       0.99730000        6 
C       3.22370000       0.22860000      -0.06520000        6 
C       1.74400000       0.22180000      -0.05610000        6 
C       3.98270000      -0.25110000      -1.05210000        6 
C       0.97650000      -0.26380000      -1.03120000        6 
H      -2.61070000      -0.26720000       1.46920000        1 
H      -0.84790000       0.05970000       1.68020000        1 
H      -0.43130000      -0.06780000      -0.87550000        1 
H      -2.31790000      -0.30040000      -1.02440000        1 
H      -1.58060000       2.07380000      -1.39140000        1 
H      -1.00190000       2.17520000       0.30210000        1 
H      -1.37850000      -2.34220000       2.02760000        1 
H      -2.07750000      -2.45100000       0.36770000        1 
H      -0.30860000      -2.12690000       0.59110000        1 
H       3.72140000       0.65620000       0.79630000        1 
H       1.24790000       0.64320000       0.80800000        1 
H       5.06070000      -0.20160000      -0.96810000        1 
H       3.56790000      -0.69370000      -1.94530000        1 
H      -3.05470000       2.11670000       1.00350000        1 
H       1.36490000      -0.70620000      -1.93650000        1 
