24
Properties=species:S:1:pos:R:3:Z:I:1 pbc="F F F"
O      -1.48850000       2.07850000       0.63270000        8 
C      -1.91170000       0.04150000      -0.58210000        6 
C      -1.56710000       0.68610000       0.76950000        6 
C      -0.80130000       0.29110000      -1.60990000        6 
C      -2.14610000      -1.46390000      -0.41280000        6 
C       2.39160000      -0.28120000       1.13410000        6 
C       2.38930000      -0.17350000      -0.33030000        6 
C       3.24440000       0.42090000       1.87440000        6 
C       1.53040000      -0.88250000      -1.05040000        6 
H      -2.85270000       0.49720000      -0.96280000        1 
H      -2.36060000       0.43840000       1.51030000        1 
H      -0.59700000       0.28770000       1.14470000        1 
H       0.29440000      -0.20700000      -1.20860000        1 
H      -1.06990000      -0.17020000      -2.58420000        1 
H      -0.66290000       1.38080000      -1.77410000        1 
H      -1.23020000      -1.96330000      -0.02930000        1 
H      -2.42320000      -1.92100000      -1.38670000        1 
H      -2.97850000      -1.64460000       0.30040000        1 
H       1.68820000      -0.94300000       1.62640000        1 
H       3.08830000       0.48510000      -0.83280000        1 
H       3.96200000       1.09240000       1.41890000        1 
H       3.22930000       0.32670000       2.95250000        1 
H      -1.25220000       2.43070000       1.52990000        1 
H       1.52410000      -0.80720000      -2.12990000        1 
