20
Properties=species:S:1:pos:R:3:Z:I:1 pbc="F F F"
O      -2.36940000       1.56260000       0.96480000        8 
C      -1.85500000       0.65780000       0.02020000        6 
C      -0.34180000       0.45830000       0.24760000        6 
C      -2.63710000      -0.66170000       0.07790000        6 
C       0.33900000      -0.27820000      -0.90490000        6 
C       3.65410000       0.09950000       0.43380000        6 
C       2.95970000      -0.57090000      -0.48110000        6 
H      -2.00830000       1.10560000      -0.98590000        1 
H       0.13840000       1.45570000       0.34800000        1 
H      -0.16480000      -0.09800000       1.19370000        1 
H       1.59270000      -0.28940000      -0.70980000        1 
H      -0.01150000      -1.32940000      -0.96210000        1 
H       0.13610000       0.23440000      -1.86920000        1 
H      -3.72590000      -0.45430000       0.00650000        1 
H      -2.43840000      -1.19400000       1.03260000        1 
H      -2.35890000      -1.31950000      -0.77140000        1 
H       4.71990000      -0.07050000       0.54680000        1 
H       3.15340000       0.82010000       1.07090000        1 
H      -2.23270000       1.16600000       1.86540000        1 
H       3.45070000      -1.29430000      -1.12380000        1 
