13
Properties=species:S:1:pos:R:3:Z:I:1 pbc="F F F"
O      -1.31960000      -1.93700000      -0.45010000        8 
O       2.26610000       1.50950000       0.99910000        8 
C       0.14960000      -0.18410000      -1.02390000        6 
C      -1.68670000       0.01850000       0.80710000        6 
C      -0.97650000      -0.78400000      -0.23900000        6 
C       2.36420000       0.53940000       0.26680000        6 
H       1.12200000       0.19680000      -0.18820000        1 
H      -0.21720000       0.70020000      -1.58570000        1 
H       0.56310000      -0.92150000      -1.74480000        1 
H      -1.58520000      -0.48170000       1.79300000        1 
H      -2.76320000       0.09890000       0.54780000        1 
H      -1.25860000       1.04080000       0.87900000        1 
H       3.34200000       0.20410000      -0.06110000        1 
