18
Properties=species:S:1:pos:R:3:Z:I:1 pbc="F F F"
C      -1.79910000       0.07800000       0.66310000        6 
C      -2.13230000      -0.28170000      -0.75110000        6 
C       2.40600000      -0.03770000       0.04300000        6 
C       1.73950000       1.20950000       0.44860000        6 
C      -3.12730000      -1.12560000      -1.03310000        6 
C       3.70230000      -0.22930000       0.26900000        6 
C       0.44470000       1.40280000       0.22380000        6 
H      -0.86840000       0.85270000       0.67700000        1 
H      -2.67440000       0.55880000       1.14870000        1 
H      -1.51610000      -0.83410000       1.22990000        1 
H      -1.55340000       0.15250000      -1.56050000        1 
H       1.83770000      -0.81860000      -0.44900000        1 
H       2.30300000       1.99260000       0.94050000        1 
H       4.30440000       0.52680000       0.75790000        1 
H       4.17380000      -1.15410000      -0.03730000        1 
H      -3.72090000      -1.57290000      -0.24130000        1 
H      -3.35320000      -1.37360000      -2.06510000        1 
H      -0.16650000       0.65360000      -0.26420000        1 
