12
Properties=species:S:1:pos:R:3:Z:I:1 pbc="F F F"
O      -1.36440000      -0.28410000      -0.52020000        8 
O       2.31630000       1.53140000      -1.02380000        8 
C      -0.20050000      -1.07640000      -0.54650000        6 
C      -1.35980000       0.49450000       0.65370000        6 
C       1.83050000       0.68260000      -0.29550000        6 
H       0.89060000      -0.32920000      -0.47610000        1 
H      -0.21020000      -1.82590000       0.27590000        1 
H      -0.16960000      -1.62990000      -1.50740000        1 
H      -0.50550000       1.20740000       0.66070000        1 
H      -1.34170000      -0.14460000       1.56500000        1 
H      -2.29360000       1.09260000       0.68410000        1 
H       2.40800000       0.28160000       0.53020000        1 
