19
Properties=species:S:1:pos:R:3:Z:I:1 pbc="F F F"
C      -0.71740000      -1.20470000      -0.44780000        6 
C      -2.12930000       0.31580000       1.11540000        6 
C      -1.48060000       0.06940000      -0.22000000        6 
C      -1.57410000       0.97210000      -1.20670000        6 
C       2.83670000      -0.29860000      -0.33440000        6 
C       2.52210000       0.52850000       0.79580000        6 
C       1.86550000      -0.75570000      -1.11090000        6 
C       2.25940000       1.22320000       1.74550000        6 
H       0.43280000      -0.94810000      -0.72680000        1 
H      -0.72710000      -1.84000000       0.46320000        1 
H      -1.17740000      -1.77600000      -1.28170000        1 
H      -2.65860000       1.29240000       1.14700000        1 
H      -2.86470000      -0.48930000       1.32350000        1 
H      -1.35380000       0.31070000       1.90980000        1 
H       3.86840000      -0.54590000      -0.54800000        1 
H      -1.10440000       0.79180000      -2.16930000        1 
H      -2.11900000       1.90110000      -1.06860000        1 
H       2.09300000      -1.37990000      -1.96520000        1 
H       2.02870000       1.83310000       2.57910000        1 
