17
Properties=species:S:1:pos:R:3:Z:I:1 pbc="F F F"
C      -1.16590000      -0.73600000       0.38450000        6 
C       2.31260000       1.09620000       0.93810000        6 
C      -2.35720000      -0.27500000      -0.39940000        6 
C       1.95390000      -0.26580000       0.43720000        6 
C      -2.23160000       0.43270000      -1.52500000        6 
C       1.25640000      -0.40830000      -0.68870000        6 
H       2.93460000       1.62580000       0.18570000        1 
H       2.88970000       1.00740000       1.88220000        1 
H       1.39070000       1.68340000       1.13480000        1 
H      -0.12640000      -0.38790000      -0.13020000        1 
H      -1.21620000      -0.31310000       1.40920000        1 
H      -1.17800000      -1.84370000       0.45100000        1 
H      -3.34970000      -0.52620000      -0.03770000        1 
H       2.26390000      -1.14470000       0.99470000        1 
H      -3.11690000       0.74970000      -2.06670000        1 
H      -1.25520000       0.70190000      -1.91600000        1 
H       0.99540000      -1.39640000      -1.05350000        1 
