14
Properties=species:S:1:pos:R:3:Z:I:1 pbc="F F F"
C      -2.04050000      -0.30320000      -0.21340000        6 
C       1.27250000      -0.83370000       0.10510000        6 
C      -2.22910000       0.99610000       0.43220000        6 
C       2.68350000      -0.55610000       0.10350000        6 
C       0.53030000      -0.59720000      -0.96930000        6 
C      -2.38430000       2.06670000       0.96400000        6 
C       3.86650000      -0.32380000       0.10320000        6 
H      -0.87630000      -0.38870000      -0.63990000        1 
H      -2.75200000      -0.40340000      -1.05870000        1 
H      -2.22480000      -1.11260000       0.52280000        1 
H       0.81050000      -1.24050000       0.99410000        1 
H       0.95910000      -0.19020000      -1.87720000        1 
H       4.90500000      -0.11990000       0.10280000        1 
H      -2.52060000       3.00660000       1.43090000        1 
