15
Properties=species:S:1:pos:R:3:Z:I:1 pbc="F F F"
O      -2.65580000      -0.28740000      -1.00760000        8 
C      -0.53130000      -1.01330000      -0.28460000        6 
C      -1.91820000       0.79520000       0.95410000        6 
C      -1.76860000      -0.17710000      -0.17500000        6 
C       2.97330000      -0.03330000      -0.24370000        6 
C       1.74840000       0.36370000      -0.57620000        6 
H       0.46700000      -0.27080000      -0.38630000        1 
H      -0.42600000      -1.64460000       0.62240000        1 
H      -0.58060000      -1.67300000      -1.17720000        1 
H      -1.87690000       0.25260000       1.92170000        1 
H      -1.09530000       1.53920000       0.91730000        1 
H      -2.88910000       1.33090000       0.88490000        1 
H       3.10490000      -0.88280000       0.41740000        1 
H       3.84290000       0.48820000      -0.63030000        1 
H       1.60530000       1.21250000      -1.23690000        1 
