20
Properties=species:S:1:pos:R:3:Z:I:1 pbc="F F F"
C      -1.50670000       0.08280000      -0.11240000        6 
C      -2.50080000      -0.95720000      -0.61830000        6 
C      -1.74690000       0.41140000       1.35730000        6 
C       2.70460000       0.89120000      -0.17800000        6 
C       1.40360000       0.63620000      -0.83530000        6 
C       3.50030000      -0.05150000       0.33040000        6 
C       0.85680000      -0.56690000      -1.00550000        6 
H      -0.35460000      -0.35550000      -0.24840000        1 
H      -1.60480000       1.00990000      -0.71730000        1 
H      -2.29670000      -1.17420000      -1.68770000        1 
H      -3.54010000      -0.57640000      -0.52370000        1 
H      -2.39970000      -1.89950000      -0.03910000        1 
H      -2.76820000       0.82480000       1.49890000        1 
H      -1.00670000       1.16770000       1.69280000        1 
H      -1.62930000      -0.50110000       1.97960000        1 
H       3.02930000       1.92190000      -0.10750000        1 
H       0.85510000       1.49190000      -1.20570000        1 
H       3.25250000      -1.10200000       0.30220000        1 
H       4.43620000       0.23330000       0.79350000        1 
H       1.31620000      -1.48680000      -0.67560000        1 
