19
Properties=species:S:1:pos:R:3:Z:I:1 pbc="F F F"
O      -0.77750000       0.18310000      -1.82350000        8 
O       3.62660000       0.04790000       1.81910000        8 
C      -0.26020000       0.42370000      -0.54140000        6 
C      -1.30300000       0.05840000       0.52760000        6 
C       0.12410000       1.89790000      -0.43330000        6 
C      -1.61010000      -1.43750000       0.53380000        6 
C       2.12700000      -0.67920000      -0.09760000        6 
C       2.89600000      -0.30630000       0.88530000        6 
H       0.79740000      -0.26570000      -0.35040000        1 
H      -2.24420000       0.62260000       0.34690000        1 
H      -0.91740000       0.33900000       1.53210000        1 
H      -0.68140000      -2.02260000       0.70430000        1 
H      -2.32680000      -1.66500000       1.35080000        1 
H      -2.06800000      -1.74540000      -0.42980000        1 
H      -0.76670000       2.54510000      -0.58260000        1 
H       0.87970000       2.14460000      -1.20890000        1 
H       0.56520000       2.10790000       0.56420000        1 
H      -0.46260000      -0.71880000      -2.09030000        1 
H       2.40180000      -1.52970000      -0.70640000        1 
