16
Properties=species:S:1:pos:R:3:Z:I:1 pbc="F F F"
C      -0.72020000       0.29390000      -0.42270000        6 
C      -1.29600000       1.38440000       0.47450000        6 
C      -1.47370000      -1.02090000      -0.25170000        6 
C       2.75480000      -0.88940000      -0.04660000        6 
C       1.88100000       0.08860000       0.17340000        6 
H       0.47360000       0.11910000      -0.13600000        1 
H      -0.78400000       0.61890000      -1.48360000        1 
H      -0.72440000       2.32460000       0.32700000        1 
H      -2.36120000       1.57110000       0.22070000        1 
H      -1.21840000       1.08530000       1.54140000        1 
H      -1.40000000      -1.37240000       0.79930000        1 
H      -1.02850000      -1.79120000      -0.91570000        1 
H      -2.54320000      -0.89140000      -0.52280000        1 
H       3.81510000      -0.72450000       0.11560000        1 
H       2.40690000      -1.85730000      -0.39010000        1 
H       2.21820000       1.06110000       0.51720000        1 
