10
Properties=species:S:1:pos:R:3:Z:I:1 pbc="F F F"
O       2.84050000       1.27740000       0.90470000        8 
C      -1.83980000       0.50460000       0.19860000        6 
C       1.45410000      -0.46400000      -0.31880000        6 
C      -1.20620000      -0.38820000      -0.55650000        6 
C       2.16510000       0.42900000       0.30860000        6 
H      -2.49860000       0.17890000       0.99700000        1 
H      -1.69790000       1.56400000       0.01610000        1 
H       0.18420000      -0.34390000      -0.37570000        1 
H       1.93940000      -1.30690000      -0.79140000        1 
H      -1.34090000      -1.45080000      -0.38260000        1 
