22
Properties=species:S:1:pos:R:3:Z:I:1 pbc="F F F"
O      -0.45960000      -0.39560000      -1.31070000        8 
C      -0.75750000      -0.88000000      -0.02940000        6 
C      -0.99690000       0.28580000       0.95120000        6 
C      -1.95450000      -1.82940000      -0.10960000        6 
C      -2.10180000       1.24560000       0.50440000        6 
C       2.93510000       0.85180000      -1.07590000        6 
C       3.29360000       0.52140000       0.27420000        6 
C       1.88290000       0.27810000      -1.64070000        6 
C       3.59590000       0.24490000       1.40810000        6 
H       0.10950000      -1.47030000       0.34470000        1 
H      -1.24980000      -0.11750000       1.95590000        1 
H      -0.05230000       0.86240000       1.05610000        1 
H      -2.15470000       2.09950000       1.21220000        1 
H      -3.08830000       0.73770000       0.50480000        1 
H      -1.88980000       1.64480000      -0.50980000        1 
H      -1.68450000      -2.71720000      -0.72000000        1 
H      -2.82410000      -1.33250000      -0.58830000        1 
H      -2.24250000      -2.17710000       0.90540000        1 
H       3.52730000       1.56980000      -1.62820000        1 
H       0.64600000       0.05490000      -1.24950000        1 
H       1.60490000       0.52090000      -2.65800000        1 
H       3.86130000       0.00220000       2.40340000        1 
