24
Properties=species:S:1:pos:R:3:Z:I:1 pbc="F F F"
O      -0.42920000      -0.94520000       2.06500000        8 
C      -1.41010000      -0.89530000       1.05710000        6 
C      -0.69830000      -0.72440000      -0.29100000        6 
C      -2.21880000      -2.20580000       1.04850000        6 
C      -2.34450000       0.30450000       1.29630000        6 
C       2.99260000       1.54280000      -2.19630000        6 
C       1.60380000       1.20190000      -1.81590000        6 
C       3.98460000       1.77440000      -1.33460000        6 
C       1.16240000       1.08150000      -0.56440000        6 
H      -0.01710000       0.34610000      -0.29100000        1 
H      -1.43290000      -0.67840000      -1.12410000        1 
H      -0.00700000      -1.57510000      -0.47390000        1 
H      -2.75270000      -2.34070000       2.01360000        1 
H      -1.54230000      -3.07490000       0.90140000        1 
H      -2.97090000      -2.19790000       0.23010000        1 
H      -1.75910000       1.24840000       1.32910000        1 
H      -2.88000000       0.19460000       2.26370000        1 
H      -3.09990000       0.38240000       0.48460000        1 
H       3.21350000       1.60770000      -3.25440000        1 
H       0.89310000       1.03800000      -2.61490000        1 
H       3.85020000       1.73040000      -0.26420000        1 
H       4.97050000       2.01750000      -1.70920000        1 
H      -0.89180000      -1.05540000       2.93730000        1 
H       1.78400000       1.22300000       0.30720000        1 
