12
Properties=species:S:1:pos:R:3:Z:I:1 pbc="F F F"
O      -1.79630000       0.85060000       0.34050000        8 
O       2.76010000       1.43070000       0.16750000        8 
C      -1.36690000      -0.44710000       0.03270000        6 
C      -0.11430000      -0.39730000      -0.83150000        6 
C       2.06130000       0.46920000       0.43960000        6 
H      -2.17340000      -0.96860000      -0.52470000        1 
H      -1.16100000      -1.02190000       0.96380000        1 
H       0.88800000       0.22000000      -0.15440000        1 
H      -0.32070000       0.16070000      -1.76940000        1 
H       0.20580000      -1.42920000      -1.08790000        1 
H      -1.18770000       1.19090000       1.04750000        1 
H       2.20520000      -0.05800000       1.37630000        1 
