22
Properties=species:S:1:pos:R:3:Z:I:1 pbc="F F F"
C      -1.40420000      -0.75040000      -0.26740000        6 
C      -2.03260000       0.17330000       0.78560000        6 
C      -1.73330000      -0.32510000      -1.69740000        6 
C      -1.37520000       1.55200000       0.82500000        6 
C       3.64540000      -0.30830000       0.38380000        6 
C       2.32770000      -0.18810000      -0.31660000        6 
C       1.21360000      -0.69280000       0.21500000        6 
H      -0.17340000      -0.78780000      -0.12000000        1 
H      -1.79430000      -1.77940000      -0.11060000        1 
H      -3.12260000       0.28450000       0.59670000        1 
H      -1.91020000      -0.29970000       1.78390000        1 
H      -1.25450000       0.64660000      -1.93680000        1 
H      -2.83230000      -0.24220000      -1.83580000        1 
H      -1.34370000      -1.08600000      -2.40580000        1 
H      -1.57590000       2.11010000      -0.11290000        1 
H      -1.79440000       2.13620000       1.67110000        1 
H      -0.27840000       1.45600000       0.97170000        1 
H       3.59610000       0.19360000       1.37330000        1 
H       3.90370000      -1.37910000       0.52490000        1 
H       4.43800000       0.17500000      -0.22470000        1 
H       2.27360000       0.31820000      -1.27490000        1 
H       1.22660000      -1.20630000       1.17170000        1 
