6
Properties=species:S:1:pos:R:3:Z:I:1 pbc="F F F"
O       2.14770000      -0.72070000       0.17220000        8 
C      -0.05290000       0.44900000      -0.31840000        6 
C       1.07550000      -0.15090000      -0.06690000        6 
H      -0.20990000       1.46640000       0.01270000        1 
H      -1.89840000      -0.63500000       0.25850000        1 
H      -1.06190000      -0.40870000      -0.05810000        1 
