11
Properties=species:S:1:pos:R:3:Z:I:1 pbc="F F F"
O       2.11580000       1.44380000      -1.58660000        8 
C      -1.25840000      -0.80000000       0.15180000        6 
C       2.16700000       0.37310000      -1.00520000        6 
C      -1.55570000       0.27680000       1.05320000        6 
C      -0.03440000      -0.93550000      -0.33670000        6 
C      -1.80690000       1.18080000       1.81040000        6 
H      -2.03730000      -1.49830000      -0.12570000        1 
H       1.13470000      -0.09930000      -0.46620000        1 
H       3.10340000      -0.17150000      -0.95320000        1 
H       0.19910000      -1.74420000      -1.01690000        1 
H      -2.02730000       1.97430000       2.47510000        1 
