14
Properties=species:S:1:pos:R:3:Z:I:1 pbc="F F F"
O      -1.85430000      -0.24420000      -1.02510000        8 
O      -1.24730000      -1.27460000      -0.46650000        8 
C      -2.76840000       0.22670000      -0.07190000        6 
C       2.10250000      -0.52830000       0.37510000        6 
C       2.60980000       0.73550000      -0.07860000        6 
C       0.82550000      -0.64840000       0.70680000        6 
C       3.03740000       1.79640000      -0.45990000        6 
H      -3.51100000      -0.56180000       0.18120000        1 
H      -2.23840000       0.56200000       0.84690000        1 
H      -3.31370000       1.09520000      -0.49510000        1 
H       2.76690000      -1.37980000       0.44440000        1 
H       0.43400000      -1.59720000       1.05000000        1 
H       3.41260000       2.72760000      -0.79460000        1 
H      -0.25550000      -0.90890000      -0.21290000        1 
