7
Properties=species:S:1:pos:R:3:Z:I:1 pbc="F F F"
C      -0.86290000      -0.33270000       0.36390000        6 
C      -0.05290000       0.40250000      -0.39250000        6 
H      -0.87140000      -1.41160000       0.25580000        1 
H      -1.51610000       0.14120000       1.08950000        1 
H      -0.03640000       1.48290000      -0.29250000        1 
H       2.03460000      -0.32420000      -0.67150000        1 
H       1.30510000       0.04190000      -0.35270000        1 
