16
Properties=species:S:1:pos:R:3:Z:I:1 pbc="F F F"
O       3.62710000       1.20420000      -1.08960000        8 
C      -0.29850000      -0.29740000       0.28010000        6 
C      -0.17260000      -1.70970000      -0.27730000        6 
C      -1.25400000       0.51350000      -0.55150000        6 
C      -2.37200000       1.03520000      -0.03860000        6 
C       2.10640000       0.60820000       0.85550000        6 
C       2.88620000       0.91380000      -0.14200000        6 
H       0.80830000       0.24660000       0.25570000        1 
H      -0.63170000      -0.35450000       1.33970000        1 
H       0.20560000      -1.67980000      -1.32150000        1 
H      -1.15890000      -2.22080000      -0.25720000        1 
H       0.54280000      -2.29000000       0.34240000        1 
H      -1.02370000       0.68350000      -1.59920000        1 
H      -3.03660000       1.61730000      -0.66870000        1 
H      -2.63520000       0.88820000       1.00440000        1 
H       2.40680000       0.84170000       1.86780000        1 
