18
Properties=species:S:1:pos:R:3:Z:I:1 pbc="F F F"
O       3.47320000       1.54890000       0.78360000        8 
C      -0.78940000       0.11760000       0.30480000        6 
C       0.05210000      -1.07910000      -0.14720000        6 
C      -0.56040000       1.31500000      -0.62280000        6 
C      -2.27550000      -0.25350000       0.35180000        6 
C       2.65030000      -0.76830000       0.14730000        6 
C       3.07220000       0.41990000       0.47360000        6 
H      -0.46620000       0.40260000       1.33010000        1 
H       1.32660000      -0.75410000      -0.14980000        1 
H      -0.23930000      -1.40120000      -1.17030000        1 
H      -0.08710000      -1.93140000       0.55170000        1 
H       0.51380000       1.59840000      -0.62430000        1 
H      -1.14720000       2.18990000      -0.27000000        1 
H      -0.86900000       1.07160000      -1.66230000        1 
H      -2.87410000       0.61000000       0.71280000        1 
H      -2.63940000      -0.54600000      -0.65680000        1 
H      -2.43620000      -1.10150000       1.05120000        1 
H       3.29570000      -1.43890000      -0.40340000        1 
