22
Properties=species:S:1:pos:R:3:Z:I:1 pbc="F F F"
O      -2.76410000       1.74520000      -0.33070000        8 
C      -1.31840000      -0.08870000       0.35260000        6 
C      -2.41570000       0.91670000       0.74790000        6 
C      -0.00810000       0.62000000      -0.00800000        6 
C      -1.77780000      -0.99420000      -0.79630000        6 
C       2.85270000      -1.28330000       0.21170000        6 
C       3.61630000      -0.08680000      -0.00220000        6 
C       1.66670000      -1.42310000      -0.36200000        6 
C       4.25890000       0.91760000      -0.18100000        6 
H      -1.11880000      -0.73510000       1.23550000        1 
H      -3.32130000       0.35970000       1.07020000        1 
H      -2.08240000       1.52280000       1.62240000        1 
H       0.90050000      -0.23970000      -0.22070000        1 
H       0.32000000       1.27080000       0.83040000        1 
H      -0.12960000       1.24070000      -0.92130000        1 
H      -2.71290000      -1.52420000      -0.51550000        1 
H      -1.00070000      -1.75740000      -1.01460000        1 
H      -1.96340000      -0.40150000      -1.71760000        1 
H       3.24990000      -2.06810000       0.84220000        1 
H      -2.15830000       2.53080000      -0.29860000        1 
H       1.08380000      -2.32150000      -0.20660000        1 
H       4.82280000       1.79920000      -0.33790000        1 
