20
Properties=species:S:1:pos:R:3:Z:I:1 pbc="F F F"
O      -1.76610000      -0.34370000       1.15710000        8 
C      -0.68650000      -0.61490000       0.30270000        6 
C      -0.80390000       0.24200000      -0.96650000        6 
C      -0.67780000      -2.10290000      -0.05320000        6 
C      -0.69690000       1.73270000      -0.65260000        6 
C       2.36500000       0.87790000       0.13040000        6 
C       1.68060000       0.26670000       1.09310000        6 
H       0.37410000      -0.34420000       0.86450000        1 
H      -1.77710000       0.04470000      -1.46740000        1 
H       0.01140000      -0.02640000      -1.67340000        1 
H      -0.76110000       2.31570000      -1.59550000        1 
H      -1.52530000       2.05080000       0.01520000        1 
H       0.27540000       1.95600000      -0.16390000        1 
H       0.18230000      -2.33430000      -0.71690000        1 
H      -1.62170000      -2.38540000      -0.56690000        1 
H      -0.57840000      -2.70990000       0.87130000        1 
H       3.44980000       0.84960000       0.12590000        1 
H       1.83700000       1.40750000      -0.65480000        1 
H      -1.47930000      -0.61580000       2.06730000        1 
H       2.19880000      -0.26610000       1.88360000        1 
