12
Properties=species:S:1:pos:R:3:Z:I:1 pbc="F F F"
O       3.56080000       0.96830000      -0.37090000        8 
C      -0.68810000       0.24660000      -0.56190000        6 
C      -1.77870000       0.03080000       0.47200000        6 
C       1.67530000      -0.57040000       0.35620000        6 
C       2.64220000       0.21860000      -0.01670000        6 
H       0.44120000      -0.26730000      -0.12520000        1 
H      -0.54880000       1.33340000      -0.74180000        1 
H      -0.96930000      -0.24780000      -1.51550000        1 
H      -2.73460000       0.46310000       0.10820000        1 
H      -1.49390000       0.52400000       1.42490000        1 
H      -1.91420000      -1.05620000       0.65170000        1 
H       1.80800000      -1.64300000       0.31890000        1 
