15
Properties=species:S:1:pos:R:3:Z:I:1 pbc="F F F"
O       3.38730000      -0.98440000      -0.99540000        8 
C      -0.64550000       0.29900000       0.43610000        6 
C      -0.62970000      -1.16790000       0.85210000        6 
C      -1.50580000       0.51520000      -0.80410000        6 
C       1.90480000       0.86450000      -0.08150000        6 
C       2.66500000      -0.08370000      -0.55020000        6 
H       0.55800000       0.67910000       0.18580000        1 
H      -1.04340000       0.91420000       1.27180000        1 
H      -1.65810000      -1.51290000       1.09190000        1 
H       0.00650000      -1.28920000       1.75370000        1 
H      -0.21170000      -1.79430000       0.03570000        1 
H      -1.10670000      -0.07490000      -1.65620000        1 
H      -2.55540000       0.21090000      -0.60440000        1 
H      -1.49240000       1.59040000      -1.07990000        1 
H       2.32710000       1.83410000       0.14440000        1 
