22
Properties=species:S:1:pos:R:3:Z:I:1 pbc="F F F"
O      -2.91260000      -0.43890000      -0.59060000        8 
C      -1.65470000      -0.44210000       0.03780000        6 
C      -0.93220000       0.90470000      -0.15540000        6 
C      -0.80230000      -1.60200000      -0.48450000        6 
C      -1.72210000       2.06310000       0.45010000        6 
C       2.65000000      -1.32740000       0.13920000        6 
C       3.47350000      -0.14970000       0.08590000        6 
C       1.50380000      -1.32770000       0.80790000        6 
C       4.16460000       0.83710000       0.04050000        6 
H      -1.81240000      -0.60650000       1.12600000        1 
H      -0.77260000       1.10010000      -1.23850000        1 
H       0.06420000       0.86400000       0.33660000        1 
H      -1.15470000       3.00830000       0.31760000        1 
H      -2.70570000       2.16910000      -0.05470000        1 
H      -1.88260000       1.89510000       1.53630000        1 
H       0.29600000      -1.65260000       0.14860000        1 
H      -0.58990000      -1.47560000      -1.56780000        1 
H      -1.34040000      -2.56190000      -0.33440000        1 
H       2.96970000      -2.22470000      -0.37280000        1 
H      -2.76320000      -0.28850000      -1.56100000        1 
H       1.15220000      -0.44730000       1.33240000        1 
H       4.77120000       1.70340000       0.00080000        1 
