15
Properties=species:S:1:pos:R:3:Z:I:1 pbc="F F F"
O      -2.42320000      -0.71630000      -0.85450000        8 
C      -3.19590000       0.29380000      -0.27760000        6 
C       2.29290000      -0.22610000      -0.00380000        6 
C       0.91540000      -0.04950000       0.48170000        6 
C       3.30820000       0.42390000       0.55720000        6 
C      -0.10020000      -0.69790000      -0.07730000        6 
H      -2.91730000       1.27750000      -0.71150000        1 
H      -3.03660000       0.31080000       0.82140000        1 
H      -4.26800000       0.09790000      -0.48460000        1 
H       2.49180000      -0.89570000      -0.83260000        1 
H       0.71160000       0.61840000       1.30940000        1 
H       4.31420000       0.28000000       0.18510000        1 
H       3.15050000       1.10170000       1.38730000        1 
H      -1.28980000      -0.44100000      -0.59260000        1 
H       0.04630000      -1.37770000      -0.90760000        1 
