15
Properties=species:S:1:pos:R:3:Z:I:1 pbc="F F F"
O      -2.48190000      -2.30330000      -0.75110000        8 
C      -0.23490000       0.30020000      -0.42580000        6 
C      -0.26400000       1.16530000       0.83440000        6 
C       1.13530000      -0.17560000      -0.85760000        6 
C       2.28510000       0.11300000      -0.23290000        6 
C      -2.16500000      -1.47040000       0.08130000        6 
H      -0.96770000      -0.72550000      -0.22600000        1 
H      -0.68270000       0.87780000      -1.26230000        1 
H       0.32490000       2.09460000       0.68180000        1 
H       0.13680000       0.59860000       1.70130000        1 
H      -1.31340000       1.44920000       1.05940000        1 
H       1.18170000      -0.79990000      -1.74470000        1 
H       3.21920000      -0.27820000      -0.62300000        1 
H       2.32610000       0.72900000       0.65770000        1 
H      -2.49960000      -1.57480000       1.10750000        1 
