20
Properties=species:S:1:pos:R:3:Z:I:1 pbc="F F F"
O       0.60640000      -0.02270000      -0.54530000        8 
C      -1.63860000       0.11310000       0.34800000        6 
C      -0.13180000       0.03000000       0.64300000        6 
C      -1.98400000       1.39020000      -0.42820000        6 
C      -2.12760000      -1.13010000      -0.40560000        6 
C       3.90020000      -0.51370000       0.40700000        6 
C       2.99680000       0.33740000      -0.07060000        6 
H      -2.17320000       0.15230000       1.32300000        1 
H       0.07920000      -0.87770000       1.25020000        1 
H       0.18150000       0.91850000       1.23400000        1 
H      -3.08350000       1.46480000      -0.56940000        1 
H      -1.64710000       2.28500000       0.13730000        1 
H      -1.49610000       1.39090000      -1.42640000        1 
H      -3.22850000      -1.08200000      -0.54650000        1 
H      -1.89380000      -2.04720000       0.17620000        1 
H      -1.64380000      -1.20420000      -1.40310000        1 
H       4.64420000      -0.95050000      -0.25120000        1 
H       3.89410000      -0.77320000       1.45990000        1 
H       1.75200000      -0.08490000      -0.20960000        1 
H       2.99380000       0.60390000      -1.12250000        1 
