22
Properties=species:S:1:pos:R:3:Z:I:1 pbc="F F F"
C      -1.27510000      -0.11190000       0.08340000        6 
C      -1.83850000      -1.48630000       0.45840000        6 
C      -1.72800000       0.95040000       1.09010000        6 
C      -1.69710000       0.27560000      -1.33740000        6 
C       3.74730000       0.15220000      -0.30720000        6 
C       2.31990000       0.60660000      -0.24060000        6 
C       1.37580000      -0.10970000       0.37300000        6 
H      -0.06460000      -0.17530000       0.11650000        1 
H      -1.49790000      -1.77360000       1.47590000        1 
H      -1.47580000      -2.25520000      -0.25660000        1 
H      -2.94970000      -1.47400000       0.44080000        1 
H      -2.83560000       1.04250000       1.09320000        1 
H      -1.28590000       1.93560000       0.82990000        1 
H      -1.38670000       0.67820000       2.11150000        1 
H      -1.25470000       1.25660000      -1.61260000        1 
H      -2.80370000       0.34550000      -1.41370000        1 
H      -1.33360000      -0.48240000      -2.06340000        1 
H       3.89540000      -0.82270000       0.20540000        1 
H       4.39590000       0.91190000       0.17610000        1 
H       4.04800000       0.04580000      -1.37010000        1 
H       2.04540000       1.54750000      -0.70580000        1 
H       1.59920000      -1.05740000       0.85350000        1 
