24
Properties=species:S:1:pos:R:3:Z:I:1 pbc="F F F"
O      -2.30860000      -1.20870000       0.72320000        8 
C      -1.91890000      -0.10850000      -0.05670000        6 
C      -1.12570000      -0.62580000      -1.26910000        6 
C      -1.08670000       0.85150000       0.80200000        6 
C      -0.85470000       0.45820000      -2.31210000        6 
C       2.36030000      -0.03500000       1.67670000        6 
C       1.37650000      -1.01490000       1.16520000        6 
C       3.15320000       0.71940000       0.91350000        6 
C       1.15390000      -1.27220000      -0.12320000        6 
H      -2.82620000       0.42650000      -0.42420000        1 
H      -0.04900000      -1.11520000      -0.89580000        1 
H      -1.71140000      -1.43450000      -1.75850000        1 
H      -0.39120000      -0.00340000      -3.20920000        1 
H      -1.80180000       0.95130000      -2.61780000        1 
H      -0.15080000       1.21800000      -1.91480000        1 
H      -0.85460000       1.78060000       0.24180000        1 
H      -1.66040000       1.13860000       1.70860000        1 
H      -0.13900000       0.36790000       1.12190000        1 
H       2.43730000       0.07310000       2.75140000        1 
H       0.79400000      -1.56410000       1.89280000        1 
H       3.14030000       0.67410000      -0.16520000        1 
H       3.84320000       1.41000000       1.38080000        1 
H      -3.05690000      -0.90320000       1.30030000        1 
H       1.67720000      -0.78360000      -0.93170000        1 
