13
Properties=species:S:1:pos:R:3:Z:I:1 pbc="F F F"
O       3.74130000      -0.41820000       0.50210000        8 
C      -0.36080000      -0.06590000      -0.07030000        6 
C      -1.54540000       0.52480000      -0.71250000        6 
C       0.51290000       0.68760000       0.58890000        6 
C      -2.41860000      -0.23090000      -1.37180000        6 
C       2.72990000      -0.59630000       1.15970000        6 
H      -0.18710000      -1.13340000      -0.12920000        1 
H      -1.71650000       1.59330000      -0.65180000        1 
H       1.64690000       0.08260000       1.19760000        1 
H       0.38000000       1.75920000       0.67380000        1 
H      -2.28310000      -1.30230000      -1.45490000        1 
H      -3.28370000       0.22330000      -1.83720000        1 
H       2.78410000      -1.12380000       2.10560000        1 
