14
Properties=species:S:1:pos:R:3:Z:I:1 pbc="F F F"
C      -2.29980000      -0.58880000      -0.59440000        6 
C      -1.67960000      -0.38280000       0.75210000        6 
C       2.03450000       0.03530000      -0.13600000        6 
C       2.70750000       1.13550000      -0.46230000        6 
C      -0.36640000      -0.19730000       0.88280000        6 
H      -3.04720000       0.21040000      -0.77990000        1 
H      -1.53760000      -0.56270000      -1.40330000        1 
H      -2.81150000      -1.57340000      -0.61560000        1 
H      -2.31270000      -0.38520000       1.63420000        1 
H       0.73700000       0.10980000       0.16060000        1 
H       2.53690000      -0.92620000      -0.10960000        1 
H       3.76390000       1.07980000      -0.70460000        1 
H       2.20110000       2.09430000      -0.48740000        1 
H       0.07400000      -0.04870000       1.86340000        1 
