15
Properties=species:S:1:pos:R:3:Z:I:1 pbc="F F F"
O      -3.98890000       0.66010000       0.82450000        8 
C       2.84850000       0.33230000      -0.35550000        6 
C      -2.07050000      -0.53780000       0.16560000        6 
C       1.71980000      -0.64250000      -0.22450000        6 
C      -2.77150000       0.64690000       0.74260000        6 
C       0.45910000      -0.27610000      -0.45900000        6 
H       2.89500000       0.72130000      -1.39460000        1 
H       3.80820000      -0.17250000      -0.11800000        1 
H       2.70320000       1.17780000       0.34970000        1 
H      -0.83750000      -0.34310000       0.17640000        1 
H      -2.30080000      -1.44090000       0.76870000        1 
H      -2.40360000      -0.69810000      -0.88120000        1 
H       1.92680000      -1.66720000       0.06640000        1 
H      -2.19920000       1.50010000       1.09110000        1 
H       0.21140000       0.73980000      -0.75200000        1 
