23
Properties=species:S:1:pos:R:3:Z:I:1 pbc="F F F"
O       0.01950000      -0.69030000      -0.54090000        8 
C      -2.28810000      -0.02050000      -0.37040000        6 
C      -0.81960000       0.33440000      -0.08950000        6 
C      -2.71300000      -1.27280000       0.40820000        6 
C      -3.20070000       1.15970000      -0.01660000        6 
C       4.59060000      -0.23210000       0.07180000        6 
C       3.18180000       0.10130000       0.45350000        6 
C       2.25050000       0.33090000      -0.47300000        6 
H      -2.39990000      -0.22860000      -1.45770000        1 
H      -0.55470000       1.27480000      -0.62130000        1 
H      -0.66460000       0.48970000       1.00140000        1 
H      -3.77210000      -1.52190000       0.18370000        1 
H      -2.60770000      -1.10930000       1.50240000        1 
H      -2.08800000      -2.14220000       0.11320000        1 
H      -3.11970000       1.40820000       1.06370000        1 
H      -4.25800000       0.91020000      -0.24930000        1 
H      -2.91960000       2.05410000      -0.61260000        1 
H       5.20000000      -0.38480000       0.98700000        1 
H       4.60960000      -1.16400000      -0.53200000        1 
H       5.03060000       0.59960000      -0.51800000        1 
H       2.90920000       0.15810000       1.50220000        1 
H       1.13000000      -0.33820000      -0.27330000        1 
H       2.48390000       0.28360000      -1.53250000        1 
