23
Properties=species:S:1:pos:R:3:Z:I:1 pbc="F F F"
O      -1.47300000      -2.23770000      -0.40770000        8 
C      -1.23120000      -0.90230000      -0.05260000        6 
C      -1.68990000       0.02130000      -1.19780000        6 
C      -1.96910000      -0.60520000       1.25450000        6 
C      -1.25670000       1.47340000      -0.99680000        6 
C       3.60870000       0.33580000       0.63060000        6 
C       2.32220000       0.17580000      -0.12290000        6 
C       1.14520000       0.07340000       0.49770000        6 
H      -0.02710000      -0.74440000       0.14430000        1 
H      -1.24220000      -0.34020000      -2.14900000        1 
H      -2.79540000      -0.02420000      -1.30820000        1 
H      -0.16030000       1.53320000      -0.82970000        1 
H      -1.78870000       1.92760000      -0.13550000        1 
H      -1.50730000       2.06160000      -1.90470000        1 
H      -1.69960000       0.40050000       1.63750000        1 
H      -3.06860000      -0.66100000       1.10500000        1 
H      -1.67750000      -1.35060000       2.02440000        1 
H       3.44460000       0.35550000       1.72960000        1 
H       4.09570000       1.28500000       0.32530000        1 
H       4.28370000      -0.51030000       0.38550000        1 
H       2.34840000       0.14220000      -1.20700000        1 
H      -0.72720000      -2.51090000      -1.00280000        1 
H       1.06550000       0.10140000       1.58020000        1 
