17
Properties=species:S:1:pos:R:3:Z:I:1 pbc="F F F"
O       3.93880000       0.52050000      -0.06690000        8 
C      -0.71530000      -0.08150000      -0.24810000        6 
C       0.52220000      -0.77700000       0.32540000        6 
C      -0.65040000       1.42670000       0.01160000        6 
C      -1.99530000      -0.67830000       0.34660000        6 
C       2.88720000       0.13150000      -0.54630000        6 
H      -0.72860000      -0.24680000      -1.34770000        1 
H       1.64420000      -0.25810000      -0.23680000        1 
H       0.57540000      -0.64080000       1.42720000        1 
H       0.49090000      -1.86400000       0.09820000        1 
H      -0.63250000       1.63730000       1.10270000        1 
H       0.26320000       1.85630000      -0.45200000        1 
H      -1.53370000       1.93020000      -0.43630000        1 
H      -2.02110000      -0.53400000       1.44830000        1 
H      -2.88800000      -0.19080000      -0.10020000        1 
H      -2.04900000      -1.76570000       0.12570000        1 
H       2.89200000      -0.46540000      -1.45160000        1 
