12
Properties=species:S:1:pos:R:3:Z:I:1 pbc="F F F"
C       0.05410000       0.41270000       0.27350000        6 
C       1.22790000      -0.42900000      -0.21540000        6 
C      -1.22050000      -0.41800000       0.37520000        6 
H      -0.14070000       1.38790000      -0.55260000        1 
H       0.29670000       0.83810000       1.27110000        1 
H       2.13590000       0.20630000      -0.28040000        1 
H       1.01080000      -0.84220000      -1.22320000        1 
H       1.42590000      -1.26350000       0.49060000        1 
H      -1.49030000      -0.83100000      -0.61990000        1 
H      -2.05290000       0.22510000       0.73000000        1 
H      -1.08190000      -1.25230000       1.09550000        1 
H      -0.16500000       1.96590000      -1.34450000        1 
