11
Properties=species:S:1:pos:R:3:Z:I:1 pbc="F F F"
O       0.56840000      -0.62650000       1.05010000        8 
O       1.62750000      -0.58650000       0.26200000        8 
C      -0.54760000      -0.81380000       0.21420000        6 
C      -1.01000000       0.51540000      -0.37370000        6 
H      -1.37360000      -1.23470000       0.82540000        1 
H      -0.33680000      -1.54470000      -0.60100000        1 
H      -1.22440000       1.23800000       0.44200000        1 
H      -1.93470000       0.35920000      -0.96830000        1 
H      -0.22650000       0.93600000      -1.03850000        1 
H       1.96070000       0.50310000       0.27800000        1 
H       2.49700000       1.25440000      -0.09020000        1 
