5
Properties=species:S:1:pos:R:3:Z:I:1 pbc="F F F"
C       0.08920000       0.07600000      -0.09390000        6 
C       1.11110000       0.68220000      -0.29670000        6 
H      -1.37290000      -0.79130000       0.19610000        1 
H       2.00840000       1.21450000      -0.47470000        1 
H      -1.83570000      -1.18140000       0.66910000        1 
