4
Properties=species:S:1:pos:R:3:Z:I:1 pbc="F F F"
O      -0.68110000       0.48690000       0.02400000        8 
H       0.59600000      -0.03610000       0.12220000        1 
H      -1.26950000      -0.30660000      -0.04600000        1 
H       1.35460000      -0.14420000      -0.10020000        1 
