11
Properties=species:S:1:pos:R:3:Z:I:1 pbc="F F F"
O       0.40410000      -0.49820000      -1.24060000        8 
O       1.52120000      -0.22550000      -0.59220000        8 
C      -0.57700000      -0.73070000      -0.26120000        6 
C      -1.13870000       0.58790000       0.26080000        6 
H      -0.18250000      -1.34420000       0.58200000        1 
H      -1.40460000      -1.30680000      -0.72630000        1 
H      -1.54880000       1.18600000      -0.58040000        1 
H      -0.34220000       1.17100000       0.76930000        1 
H      -1.95260000       0.38540000       0.98850000        1 
H       2.80090000       0.55210000       0.81820000        1 
H       2.42020000       0.22290000      -0.01790000        1 
