6
Properties=species:S:1:pos:R:3:Z:I:1 pbc="F F F"
C      -0.41140000      -0.00840000      -0.07320000        6 
H      -0.96540000      -0.49670000      -0.90100000        1 
H      -0.75130000       1.04270000       0.02980000        1 
H      -0.60460000      -0.55380000       0.87340000        1 
H       1.77560000       0.02430000       0.23230000        1 
H       0.95710000      -0.00810000      -0.16130000        1 
