11
Properties=species:S:1:pos:R:3:Z:I:1 pbc="F F F"
O      -0.79720000       1.88500000       0.47310000        8 
O       2.24430000       1.07240000      -1.25070000        8 
C      -0.30520000      -0.42080000       0.66010000        6 
C       0.55400000      -0.56030000      -0.59120000        6 
C      -1.23600000       0.74800000       0.54570000        6 
H       0.34860000      -0.28700000       1.54820000        1 
H      -0.89950000      -1.34940000       0.79820000        1 
H       1.26870000       0.46910000      -0.74700000        1 
H      -0.08860000      -0.70130000      -1.48660000        1 
H       1.22020000      -1.44260000      -0.48830000        1 
H      -2.30910000       0.58690000       0.53830000        1 
