12
Properties=species:S:1:pos:R:3:Z:I:1 pbc="F F F"
O       3.24800000      -0.02650000       0.69460000        8 
O       3.68120000       0.97600000      -0.03980000        8 
C      -0.05140000      -0.01240000       0.20140000        6 
C      -1.39880000      -0.18780000      -0.36280000        6 
C       1.02340000      -0.48080000      -0.42390000        6 
C      -2.47320000       0.28170000       0.26450000        6 
H       0.07940000       0.50630000       1.14320000        1 
H      -1.52640000      -0.70730000      -1.30540000        1 
H       2.32020000      -0.29160000       0.15530000        1 
H       0.94080000      -1.00580000      -1.36770000        1 
H      -3.45570000       0.14220000      -0.16750000        1 
H      -2.38750000       0.80630000       1.20820000        1 
