9
Properties=species:S:1:pos:R:3:Z:I:1 pbc="F F F"
O      -2.30380000       0.05330000      -0.70150000        8 
O       1.95430000      -0.20580000      -0.61010000        8 
O       3.07440000       0.48200000      -0.67440000        8 
C      -0.31200000      -0.43290000       0.46910000        6 
C      -1.30790000       0.49290000      -0.14960000        6 
H       0.88870000      -0.25140000      -0.11640000        1 
H      -0.22620000      -0.21110000       1.55300000        1 
H      -0.62340000      -1.49140000       0.33870000        1 
H      -1.14420000       1.56450000      -0.10880000        1 
