12
Properties=species:S:1:pos:R:3:Z:I:1 pbc="F F F"
O      -1.43860000       1.81830000       0.21140000        8 
O       2.26130000       0.09390000      -0.38680000        8 
O       3.29060000       0.88230000      -0.61240000        8 
C      -0.99490000      -0.47570000      -0.15300000        6 
C       0.17010000      -0.62570000       0.81740000        6 
C      -1.14440000       0.94860000      -0.59330000        6 
H      -1.93480000      -0.81540000       0.33230000        1 
H      -0.80720000      -1.11400000      -1.04250000        1 
H       1.32670000      -0.19290000       0.22720000        1 
H       0.28790000      -1.69410000       1.09580000        1 
H      -0.01520000      -0.03610000       1.74060000        1 
H      -1.00150000       1.21080000      -1.63660000        1 
