15
Properties=species:S:1:pos:R:3:Z:I:1 pbc="F F F"
O       2.59730000      -0.10530000      -1.08540000        8 
O      -2.91300000       1.62890000       0.38050000        8 
O       2.50530000       0.53690000       1.12540000        8 
O       1.57560000      -0.96030000      -0.94610000        8 
C      -1.37490000       0.04430000      -0.46490000        6 
C      -0.45800000      -0.73990000       0.46410000        6 
C      -2.62890000       0.44910000       0.24920000        6 
C       3.04950000       0.64680000      -0.00500000        6 
H      -0.83440000       0.94200000      -0.83620000        1 
H      -1.64260000      -0.58900000      -1.33680000        1 
H       0.67580000      -1.09520000      -0.21530000        1 
H      -0.17030000      -0.11730000       1.33820000        1 
H      -0.96440000      -1.66280000       0.81980000        1 
H      -3.29290000      -0.30980000       0.65050000        1 
H       3.87570000       1.33160000      -0.13800000        1 
