20
Properties=species:S:1:pos:R:3:Z:I:1 pbc="F F F"
O      -0.07870000      -0.38340000      -2.03610000        8 
O       2.56260000      -1.75290000       0.85130000        8 
O       3.26610000       0.01020000      -0.45460000        8 
O       1.30240000      -1.30090000       0.89520000        8 
C      -1.23860000       0.65920000      -0.18050000        6 
C       0.09940000       0.16640000      -0.75810000        6 
C      -1.01150000       1.35230000       1.16740000        6 
C      -2.22900000      -0.50110000      -0.02120000        6 
C       3.54480000      -1.05810000       0.15130000        6 
H      -1.67780000       1.40350000      -0.88120000        1 
H       0.61200000      -0.76450000       0.03820000        1 
H       0.83040000       1.00590000      -0.80820000        1 
H      -0.56900000       0.64600000       1.90270000        1 
H      -0.32550000       2.21730000       1.04300000        1 
H      -1.97450000       1.73280000       1.57010000        1 
H      -2.43710000      -0.96990000      -1.00630000        1 
H      -3.19190000      -0.12870000       0.38940000        1 
H      -1.82190000      -1.27390000       0.66600000        1 
H       4.55640000      -1.43950000       0.12790000        1 
H      -0.21860000       0.37930000      -2.65620000        1 
