13
Properties=species:S:1:pos:R:3:Z:I:1 pbc="F F F"
O       2.27990000       1.27950000      -0.49230000        8 
O       3.57650000       0.74220000       1.33500000        8 
O       1.90420000       0.00750000      -0.68020000        8 
C      -1.28090000      -1.08380000       0.17190000        6 
C      -0.53670000      -0.31040000      -0.60910000        6 
C       3.13730000       1.62280000       0.54900000        6 
C      -2.71540000      -1.07150000       0.07190000        6 
C      -3.91810000      -1.06190000      -0.01120000        6 
H      -0.80390000      -1.73260000       0.89390000        1 
H       0.89070000      -0.34280000      -0.48790000        1 
H      -0.98850000       0.34890000      -1.34070000        1 
H       3.42880000       2.65540000       0.68390000        1 
H      -4.97390000      -1.05340000      -0.08420000        1 
