20
Properties=species:S:1:pos:R:3:Z:I:1 pbc="F F F"
O       0.42600000      -0.46120000      -1.28100000        8 
O       3.34300000      -0.88560000       0.19280000        8 
O       4.38650000       1.12490000      -0.22890000        8 
O       2.67990000      -0.85870000      -0.97070000        8 
C      -1.86470000      -0.65460000      -0.56730000        6 
C      -2.06090000       0.85380000      -0.34000000        6 
C      -0.41660000      -1.11680000      -0.37820000        6 
C      -1.89460000       1.25830000       1.12450000        6 
C       4.20970000       0.14580000       0.54310000        6 
H      -3.09090000       1.12330000      -0.65960000        1 
H      -1.35420000       1.43590000      -0.96990000        1 
H      -2.17980000      -0.89970000      -1.60500000        1 
H      -2.52440000      -1.22570000       0.12170000        1 
H      -0.36270000      -2.21150000      -0.56180000        1 
H      -0.07710000      -0.92640000       0.66150000        1 
H      -2.16950000       2.32740000       1.24490000        1 
H      -0.84090000       1.13520000       1.44930000        1 
H      -2.55720000       0.64830000       1.77450000        1 
H       4.73580000       0.10540000       1.48700000        1 
H       1.61260000      -0.91810000      -1.03670000        1 
