8
Properties=species:S:1:pos:R:3:Z:I:1 pbc="F F F"
O      -0.92240000      -1.00490000      -0.09000000        8 
O       2.36680000       0.01180000       0.05290000        8 
O      -0.95420000       1.29650000       0.01600000        8 
O       0.31050000      -1.02770000      -0.61320000        8 
C      -1.54220000       0.20190000       0.22110000        6 
H      -2.53800000       0.19900000       0.64280000        1 
H       1.21970000      -0.58980000      -0.55400000        1 
H       2.05970000       0.91320000       0.32450000        1 
