14
Properties=species:S:1:pos:R:3:Z:I:1 pbc="F F F"
O      -1.85690000       0.73750000       1.36700000        8 
O       2.10160000      -0.68960000      -0.35360000        8 
O       3.47390000       0.87710000       0.63180000        8 
O       1.12230000      -0.48620000       0.53750000        8 
C      -1.21750000       0.42410000       0.16320000        6 
C      -2.00760000      -0.64510000      -0.57310000        6 
C       3.29370000       0.02480000      -0.27770000        6 
H       0.00540000      -0.03160000       0.40870000        1 
H      -1.14710000       1.33390000      -0.47290000        1 
H      -1.49750000      -0.89410000      -1.52720000        1 
H      -2.07390000      -1.56210000       0.04950000        1 
H      -3.03190000      -0.27730000      -0.79530000        1 
H       4.07220000      -0.15410000      -1.00670000        1 
H      -1.23660000       1.34280000       1.84910000        1 
