12
Properties=species:S:1:pos:R:3:Z:I:1 pbc="F F F"
O      -2.04360000      -0.16390000      -0.92680000        8 
O      -2.32120000       0.65930000       1.20720000        8 
O      -1.21410000      -1.13150000      -0.51460000        8 
C       1.22340000      -1.09070000       0.06020000        6 
C      -2.59380000       0.73730000      -0.01990000        6 
C       1.89390000       0.20840000       0.11960000        6 
C       2.44600000       1.27880000       0.16850000        6 
H      -0.04870000      -0.91980000      -0.33390000        1 
H       1.23910000      -1.56170000       1.06460000        1 
H       1.74990000      -1.74620000      -0.66370000        1 
H      -3.26140000       1.51140000      -0.37270000        1 
H       2.93070000       2.21860000       0.21140000        1 
