20
Properties=species:S:1:pos:R:3:Z:I:1 pbc="F F F"
O      -0.38310000       2.26620000      -1.42150000        8 
O       3.38090000      -0.04760000       0.11020000        8 
O       2.24440000      -1.51420000       1.47640000        8 
O       2.27050000       0.28990000      -0.55880000        8 
C      -1.04350000      -0.01310000      -0.99620000        6 
C      -1.20780000       0.13340000       0.52160000        6 
C       0.02730000       0.93230000      -1.54370000        6 
C      -2.24150000      -0.85140000       1.06030000        6 
C       3.33380000      -0.97470000       1.14740000        6 
H      -1.53760000       1.16570000       0.76840000        1 
H      -0.23480000      -0.05610000       1.02510000        1 
H      -2.01100000       0.19500000      -1.50360000        1 
H      -0.74370000      -1.05710000      -1.23370000        1 
H       1.18060000       0.73090000      -0.91710000        1 
H       0.18470000       0.71030000      -2.62040000        1 
H      -2.34230000      -0.72100000       2.15840000        1 
H      -1.92370000      -1.89580000       0.85460000        1 
H      -3.23060000      -0.66890000       0.58860000        1 
H       4.24130000      -1.23380000       1.67520000        1 
H       0.03620000       2.61000000      -0.59130000        1 
