12
Properties=species:S:1:pos:R:3:Z:I:1 pbc="F F F"
O      -1.84710000       1.00780000      -0.65540000        8 
O       3.00300000       0.85050000      -0.24010000        8 
O      -2.72490000      -0.19360000       1.10390000        8 
O      -0.64340000       1.10050000      -0.07500000        8 
C       1.17820000      -0.63590000      -0.18910000        6 
C       2.46280000      -0.08230000       0.33130000        6 
C      -2.89220000       0.33820000      -0.02540000        6 
H       0.24060000       0.33270000      -0.20070000        1 
H       1.32520000      -1.01910000      -1.22060000        1 
H       0.83520000      -1.46710000       0.46180000        1 
H       2.91920000      -0.50610000       1.21980000        1 
H      -3.85650000       0.27440000      -0.51050000        1 
