11
Properties=species:S:1:pos:R:3:Z:I:1 pbc="F F F"
O       1.89300000      -1.05450000      -0.05190000        8 
O       2.08120000       1.03570000       0.89900000        8 
O       0.65350000      -1.23010000       0.42470000        8 
C      -1.48090000      -0.27960000      -0.56190000        6 
C      -2.22340000       0.61920000       0.07870000        6 
C       2.59730000       0.11740000       0.20880000        6 
H      -0.29740000      -0.80150000       0.05460000        1 
H      -1.76670000      -0.62120000      -1.55150000        1 
H      -3.12080000       1.01800000      -0.38310000        1 
H      -1.93260000       0.95670000       1.06750000        1 
H       3.59690000       0.23990000      -0.18500000        1 
