11
Properties=species:S:1:pos:R:3:Z:I:1 pbc="F F F"
O      -2.72270000       0.28370000      -0.31710000        8 
O       1.49450000       0.74780000      -0.54100000        8 
O       2.76800000      -0.93200000       0.38930000        8 
O       0.56220000      -0.11120000      -0.97380000        8 
C      -1.66900000      -0.48370000       0.18570000        6 
C       2.61240000       0.29540000       0.15410000        6 
H      -0.53240000      -0.16390000      -0.43720000        1 
H      -1.55920000      -0.30920000       1.27770000        1 
H      -1.88470000      -1.55820000       0.01300000        1 
H       3.35380000       1.00480000       0.49510000        1 
H      -2.42300000       1.22640000      -0.24600000        1 
