15
Properties=species:S:1:pos:R:3:Z:I:1 pbc="F F F"
O       2.54660000      -0.41180000      -0.61270000        8 
O      -0.80890000      -1.49560000       0.72950000        8 
O       3.25540000       1.08160000       0.99230000        8 
O       1.68520000       0.46720000      -1.14170000        8 
C      -0.79160000      -0.09050000      -1.15630000        6 
C      -2.34950000       0.28230000       0.89500000        6 
C      -1.28410000      -0.50560000       0.19520000        6 
C       3.33640000      -0.06600000       0.48000000        6 
H       0.53300000       0.15290000      -1.09540000        1 
H      -1.31040000       0.82900000      -1.50130000        1 
H      -0.98000000      -0.90410000      -1.88770000        1 
H      -3.27040000       0.29630000       0.27540000        1 
H      -2.58810000      -0.16960000       1.88150000        1 
H      -1.99940000       1.32380000       1.05360000        1 
H       4.02570000      -0.78990000       0.89260000        1 
