13
Properties=species:S:1:pos:R:3:Z:I:1 pbc="F F F"
O       2.07950000      -0.50760000      -0.78170000        8 
O       2.89180000       1.27700000       0.42830000        8 
O       0.90840000       0.10000000      -1.01320000        8 
C      -0.99940000      -0.15010000       0.56980000        6 
C      -2.29340000       0.00150000      -0.20950000        6 
C       3.07460000       0.12220000      -0.03970000        6 
H       0.05450000      -0.21440000      -0.30110000        1 
H      -1.03030000      -1.08060000       1.17480000        1 
H      -0.86190000       0.72020000       1.24560000        1 
H      -2.42630000      -0.86840000      -0.88600000        1 
H      -2.25800000       0.93100000      -0.81530000        1 
H      -3.15260000       0.05430000       0.49180000        1 
H       4.01320000      -0.38510000       0.13620000        1 
