10
Properties=species:S:1:pos:R:3:Z:I:1 pbc="F F F"
O       1.72760000      -0.73880000      -0.48760000        8 
O       2.24750000       1.37940000       0.25500000        8 
O       0.47510000      -0.38850000      -0.80810000        8 
O      -3.73730000       1.05780000      -0.35800000        8 
C       2.61070000       0.19020000       0.05510000        6 
C      -1.75800000      -0.38910000       0.30540000        6 
C      -2.77300000       0.35290000      -0.03480000        6 
H       3.61780000      -0.11240000       0.30710000        1 
H      -0.53140000      -0.19080000      -0.28750000        1 
H      -1.87890000      -1.16070000       1.05330000        1 
