20
Properties=species:S:1:pos:R:3:Z:I:1 pbc="F F F"
O       0.48510000       1.27340000       0.20290000        8 
O       3.71230000       0.65320000       0.50090000        8 
O       4.16940000      -1.10610000      -0.91500000        8 
O       2.73680000       1.11960000      -0.28970000        8 
C      -1.67730000       0.30410000      -0.22950000        6 
C      -0.15160000       0.13380000      -0.29880000        6 
C      -2.15360000       0.43400000       1.22350000        6 
C      -2.37840000      -0.87460000      -0.91470000        6 
C       4.42720000      -0.48910000       0.15220000        6 
H      -1.95450000       1.23390000      -0.77410000        1 
H       0.16340000      -0.75610000       0.28930000        1 
H       0.16110000      -0.01290000      -1.35580000        1 
H      -1.88750000      -0.47390000       1.80660000        1 
H      -3.25590000       0.56890000       1.25430000        1 
H      -1.68780000       1.31960000       1.70550000        1 
H      -2.06530000      -0.94140000      -1.97850000        1 
H      -2.12720000      -1.83030000      -0.40590000        1 
H      -3.48010000      -0.73310000      -0.88910000        1 
H       5.21100000      -0.84960000       0.80410000        1 
H       1.75290000       1.02660000       0.11170000        1 
