20
Properties=species:S:1:pos:R:3:Z:I:1 pbc="F F F"
O      -3.78960000       0.80120000       0.69790000        8 
O       3.74800000      -0.57450000      -0.25120000        8 
O       3.92260000       1.57460000      -1.06340000        8 
O       2.67400000      -0.84100000      -1.00610000        8 
C      -2.04050000      -0.67550000       0.00170000        6 
C      -0.55700000      -1.04850000       0.14410000        6 
C      -2.40620000       0.59690000       0.76960000        6 
C       0.36840000      -0.08910000      -0.60120000        6 
C       4.36420000       0.67240000      -0.30370000        6 
H      -0.27010000      -1.08220000       1.21730000        1 
H      -0.40770000      -2.06660000      -0.27540000        1 
H      -2.30030000      -0.55290000      -1.07260000        1 
H      -2.64960000      -1.51570000       0.40110000        1 
H      -2.10090000       0.49190000       1.83500000        1 
H      -1.88280000       1.47130000       0.32450000        1 
H       1.64860000      -0.57020000      -0.54730000        1 
H       0.35540000       0.91580000      -0.13080000        1 
H       0.06630000      -0.00500000      -1.66680000        1 
H       5.23030000       0.86780000       0.31370000        1 
H      -3.97300000       1.62920000       1.21360000        1 
