20
Properties=species:S:1:pos:R:3:Z:I:1 pbc="F F F"
O      -1.66830000      -1.79820000       1.04440000        8 
O       2.79440000      -0.35370000       0.65000000        8 
O       3.96370000      -0.90310000      -1.25770000        8 
O       1.62590000      -0.74240000       0.12290000        8 
C      -0.72550000       0.12680000      -0.07530000        6 
C      -1.79390000      -0.97930000      -0.08780000        6 
C      -0.73320000       0.89340000      -1.40220000        6 
C      -0.93420000       1.09270000       1.09750000        6 
C       3.97370000      -0.44890000      -0.08320000        6 
H       0.45260000      -0.43600000       0.05960000        1 
H      -2.81650000      -0.53830000      -0.15440000        1 
H      -1.64870000      -1.61690000      -0.98580000        1 
H      -0.53510000       0.19860000      -2.24580000        1 
H       0.06400000       1.66670000      -1.40120000        1 
H      -1.71530000       1.38770000      -1.56470000        1 
H      -0.15970000       1.88870000       1.07870000        1 
H      -0.83980000       0.55280000       2.06280000        1 
H      -1.93800000       1.56630000       1.04310000        1 
H       4.90690000      -0.12970000       0.36030000        1 
H      -2.27270000      -1.42710000       1.73890000        1 
