14
Properties=species:S:1:pos:R:3:Z:I:1 pbc="F F F"
O      -1.62240000       1.37200000       0.78590000        8 
O       2.48920000       0.03380000       0.54900000        8 
O       2.59920000       0.01750000      -1.75240000        8 
O       1.36700000      -0.69740000       0.56440000        8 
C      -1.79640000       0.37950000      -0.18770000        6 
C      -1.10590000      -0.90740000       0.24240000        6 
C       3.09550000       0.38320000      -0.65430000        6 
H      -1.34480000       0.73000000      -1.13930000        1 
H      -2.87930000       0.19040000      -0.36620000        1 
H       0.22560000      -0.66870000       0.45090000        1 
H      -1.56080000      -1.29040000       1.18040000        1 
H      -1.21630000      -1.67590000      -0.55150000        1 
H       4.00120000       0.97410000      -0.64540000        1 
H      -2.25180000       1.15940000       1.52380000        1 
