17
Properties=species:S:1:pos:R:3:Z:I:1 pbc="F F F"
O       2.98160000      -0.36600000      -0.52730000        8 
O       3.47440000       0.59340000       1.50870000        8 
O       2.12000000      -1.23460000       0.01830000        8 
C      -0.75190000       0.10190000      -0.41550000        6 
C      -0.39030000      -1.30060000       0.05500000        6 
C      -2.24540000       0.27850000      -0.44800000        6 
C      -2.86570000       1.19800000       0.29690000        6 
C       3.65920000       0.55750000       0.26350000        6 
H      -0.34970000       0.25730000      -1.43870000        1 
H      -0.27030000       0.84250000       0.25970000        1 
H       0.97160000      -1.43580000       0.06670000        1 
H      -0.77540000      -1.47320000       1.08290000        1 
H      -0.81830000      -2.06230000      -0.63150000        1 
H      -2.83540000      -0.35860000      -1.10060000        1 
H      -2.31010000       1.85370000       0.96020000        1 
H      -3.94510000       1.29810000       0.24580000        1 
H       4.35070000       1.25030000      -0.19620000        1 
