15
Properties=species:S:1:pos:R:3:Z:I:1 pbc="F F F"
O      -1.69210000       2.65030000       0.61090000        8 
C       0.78740000       0.14400000       0.63890000        6 
C       1.72510000      -0.58350000      -0.32290000        6 
C      -1.45690000      -0.69220000      -0.25260000        6 
C      -0.55010000       0.51120000      -0.01300000        6 
H       1.27900000       1.08300000       0.97090000        1 
H       0.61370000      -0.48290000       1.53990000        1 
H       2.70780000      -0.74220000       0.16910000        1 
H       1.88310000       0.02030000      -1.24180000        1 
H       1.31060000      -1.57520000      -0.59910000        1 
H      -1.59870000      -1.26230000       0.68960000        1 
H      -1.02760000      -1.35730000      -1.03030000        1 
H      -2.44800000      -0.33560000      -0.60170000        1 
H      -0.39680000       1.08390000      -0.95340000        1 
H      -1.13670000       1.53870000       0.39540000        1 
