9
Properties=species:S:1:pos:R:3:Z:I:1 pbc="F F F"
O       3.18020000      -0.57980000      -0.48750000        8 
C      -0.00230000       0.66870000       0.16810000        6 
C      -1.23800000      -0.07630000      -0.07380000        6 
C      -2.25610000      -0.69030000      -0.27310000        6 
C       2.33780000      -0.52350000       0.39250000        6 
H       0.08090000       1.49630000      -0.56610000        1 
H      -0.01680000       1.08620000       1.19590000        1 
H      -3.14990000      -1.22930000      -0.44810000        1 
H       1.06410000      -0.15200000       0.09200000        1 
