12
Properties=species:S:1:pos:R:3:Z:I:1 pbc="F F F"
C       0.98280000       1.32430000       0.19520000        6 
C      -0.32280000       1.31550000      -0.04060000        6 
C      -1.64800000      -0.96010000      -0.10910000        6 
C       1.74040000       0.10480000       0.14250000        6 
C       2.37710000      -0.91810000       0.09850000        6 
H       1.48540000       2.25370000       0.42920000        1 
H      -0.96910000       0.14970000      -0.33710000        1 
H      -0.88830000       2.23730000       0.00050000        1 
H      -1.14760000      -1.94400000       0.00210000        1 
H      -2.11670000      -0.89490000      -1.11250000        1 
H      -2.42890000      -0.85210000       0.67150000        1 
H       2.93580000      -1.81600000       0.05980000        1 
