8
Properties=species:S:1:pos:R:3:Z:I:1 pbc="F F F"
C      -0.63820000      -0.27460000       0.35620000        6 
C       0.77410000      -0.14490000      -0.00340000        6 
C       1.93760000      -0.03790000      -0.29990000        6 
H      -1.34920000       0.50020000      -0.40050000        1 
H      -0.96100000      -1.32660000       0.21520000        1 
H      -0.77800000       0.01590000       1.41780000        1 
H       2.95900000       0.05610000      -0.56030000        1 
H      -1.94440000       1.21180000      -0.72500000        1 
