10
Properties=species:S:1:pos:R:3:Z:I:1 pbc="F F F"
O      -2.46280000      -1.70570000      -0.72290000        8 
C       0.36150000       0.33350000      -0.35860000        6 
C      -0.44960000      -0.48050000       0.30670000        6 
C       1.48990000       0.94360000       0.29150000        6 
C       2.43610000       1.45560000       0.83560000        6 
H       0.17430000       0.54270000      -1.40330000        1 
H      -1.41800000      -0.99690000      -0.27330000        1 
H      -0.28310000      -0.70560000       1.35350000        1 
H       3.26660000       1.90500000       1.31330000        1 
H      -3.11480000      -1.29170000      -1.34260000        1 
