10
Properties=species:S:1:pos:R:3:Z:I:1 pbc="F F F"
C      -0.54250000      -1.04970000      -0.36220000        6 
C      -1.45660000       0.07780000      -0.17730000        6 
C      -2.20960000       1.00670000      -0.02500000        6 
C       2.69370000       0.75740000       0.56230000        6 
C       2.08030000      -0.27780000       0.49140000        6 
H       0.40210000      -0.86080000       0.20500000        1 
H      -1.01960000      -1.97830000       0.01320000        1 
H      -0.30930000      -1.16410000      -1.44080000        1 
H      -2.87080000       1.82220000       0.10870000        1 
H       3.23230000       1.66650000       0.62460000        1 
