17
Properties=species:S:1:pos:R:3:Z:I:1 pbc="F F F"
C      -1.60160000       0.79090000      -0.71040000        6 
C       1.65440000      -0.29310000      -0.08940000        6 
C       2.15000000      -1.04880000      -1.06210000        6 
C      -2.90230000       0.75600000      -1.00380000        6 
C      -1.57930000      -0.82230000       1.20530000        6 
C      -0.96250000       0.01500000       0.37270000        6 
C       2.52400000       0.40960000       0.81490000        6 
C       3.25210000       0.99920000       1.57370000        6 
H       0.36380000      -0.18410000       0.05100000        1 
H      -0.96010000       1.43050000      -1.30260000        1 
H       1.47940000      -1.56960000      -1.73230000        1 
H       3.21940000      -1.15570000      -1.19980000        1 
H      -3.28240000       1.36040000      -1.81720000        1 
H      -3.60560000       0.14340000      -0.45940000        1 
H      -2.64110000      -1.01390000       1.15900000        1 
H      -0.99940000      -1.33430000       1.96080000        1 
H       3.89130000       1.51670000       2.23970000        1 
