11
Properties=species:S:1:pos:R:3:Z:I:1 pbc="F F F"
C       0.69510000      -0.81200000       0.05370000        6 
C      -1.87470000      -0.03580000      -0.18980000        6 
C       1.53280000       0.38260000       0.16200000        6 
C       2.22280000       1.36700000       0.25130000        6 
H      -0.52730000      -0.46520000      -0.05670000        1 
H       0.82160000      -1.43650000       0.96190000        1 
H       0.99600000      -1.39530000      -0.84080000        1 
H      -2.05850000       0.36950000      -1.20600000        1 
H      -2.13520000       0.73220000       0.56730000        1 
H      -2.50140000      -0.93770000      -0.03240000        1 
H       2.82860000       2.23120000       0.32960000        1 
