13
Properties=species:S:1:pos:R:3:Z:I:1 pbc="F F F"
C      -0.87950000      -0.27930000      -0.10040000        6 
C      -1.39620000      -1.50120000      -0.15360000        6 
C       2.60620000       0.30240000       0.69160000        6 
C      -1.71740000       0.88230000      -0.22970000        6 
C       1.74650000      -0.36820000      -0.06980000        6 
C      -2.41880000       1.85680000      -0.33790000        6 
H       0.39270000      -0.12730000       0.06960000        1 
H      -0.74950000      -2.36270000      -0.05440000        1 
H      -2.45930000      -1.65500000      -0.29540000        1 
H       3.56720000       0.61100000       0.29290000        1 
H       2.34640000       0.54270000       1.71660000        1 
H       1.99630000      -0.61390000      -1.09680000        1 
H      -3.03460000       2.71220000      -0.43290000        1 
