12
Properties=species:S:1:pos:R:3:Z:I:1 pbc="F F F"
C       0.51980000       0.00320000      -0.07410000        6 
C       1.16120000      -1.12190000      -0.36630000        6 
C      -2.01350000      -0.60810000       0.16640000        6 
C       1.23680000       1.23740000       0.10050000        6 
C       1.83680000       2.27270000       0.24710000        6 
H      -0.79860000      -0.00710000       0.05920000        1 
H       0.60380000      -2.04010000      -0.49380000        1 
H       2.23850000      -1.14000000      -0.48070000        1 
H      -2.39190000      -0.13360000       1.09510000        1 
H      -2.33220000      -0.00900000      -0.71130000        1 
H      -2.42440000      -1.63510000       0.08200000        1 
H       2.36370000       3.18150000       0.37580000        1 
