6
Properties=species:S:1:pos:R:3:Z:I:1 pbc="F F F"
O       2.06040000      -0.00840000       0.00280000        8 
C      -0.44970000       0.00120000      -0.00240000        6 
H       0.84630000       0.01620000       0.06030000        1 
H      -0.77660000      -0.78960000      -0.70840000        1 
H      -0.86620000      -0.20670000       1.00460000        1 
H      -0.81420000       0.98720000      -0.35700000        1 
