7
Properties=species:S:1:pos:R:3:Z:I:1 pbc="F F F"
O       1.57020000       0.39340000       0.05400000        8 
O       2.71570000      -0.24850000      -0.03400000        8 
C      -0.91540000      -0.03720000      -0.00490000        6 
H       0.47420000       0.15830000       0.01590000        1 
H      -1.13600000      -1.09970000      -0.23540000        1 
H      -1.34010000       0.22200000       0.98670000        1 
H      -1.36860000       0.61170000      -0.78230000        1 
