10
Properties=species:S:1:pos:R:3:Z:I:1 pbc="F F F"
O      -0.55810000      -0.00580000      -0.46240000        8 
C       1.87390000       0.04060000       0.09810000        6 
C      -1.89690000      -0.04270000      -0.07630000        6 
H       0.62590000       0.06330000      -0.14110000        1 
H       2.14280000       0.90330000       0.74170000        1 
H       2.43480000       0.10280000      -0.85710000        1 
H       2.13360000      -0.90410000       0.61850000        1 
H      -1.96710000      -0.35880000       0.98480000        1 
H      -2.34300000       0.96650000      -0.19180000        1 
H      -2.44600000      -0.76510000      -0.71450000        1 
