13
Properties=species:S:1:pos:R:3:Z:I:1 pbc="F F F"
O      -0.38690000      -0.07310000      -0.86880000        8 
O      -1.26760000      -1.45560000       0.74810000        8 
O       0.72580000      -0.81060000      -0.98010000        8 
C      -2.62280000       0.40570000       0.13490000        6 
C       2.79930000       0.12160000       0.11450000        6 
C      -1.39230000      -0.42960000       0.02710000        6 
H      -3.51350000      -0.20770000      -0.11520000        1 
H      -2.56660000       1.26410000      -0.56710000        1 
H      -2.72210000       0.79210000       1.17080000        1 
H       1.60250000      -0.32260000      -0.46860000        1 
H       3.48950000      -0.73760000       0.24240000        1 
H       3.27150000       0.88050000      -0.54260000        1 
H       2.58310000       0.57280000       1.10460000        1 
