17
Properties=species:S:1:pos:R:3:Z:I:1 pbc="F F F"
O       0.18680000       0.03300000      -0.99020000        8 
O       0.74810000      -0.25260000       0.17140000        8 
C      -1.19290000       0.22940000      -0.76090000        6 
C      -1.45290000       1.42840000       0.16200000        6 
C      -1.87250000      -1.04630000      -0.24380000        6 
C       3.24550000      -0.39710000       0.53260000        6 
H      -1.65500000       0.46880000      -1.74320000        1 
H      -1.08980000       1.22540000       1.19200000        1 
H      -2.54170000       1.64430000       0.20670000        1 
H      -0.93220000       2.32650000      -0.23270000        1 
H      -1.64800000      -1.89450000      -0.92470000        1 
H      -1.51830000      -1.30130000       0.77770000        1 
H      -2.97380000      -0.90360000      -0.21110000        1 
H       1.88450000      -0.26440000       0.21650000        1 
H       3.43310000       0.02150000       1.54270000        1 
H       3.85390000       0.15290000      -0.21450000        1 
H       3.52530000      -1.47050000       0.51940000        1 
