13
Properties=species:S:1:pos:R:3:Z:I:1 pbc="F F F"
O      -2.58160000       0.08440000      -0.87330000        8 
O       2.10510000       0.74140000      -0.74760000        8 
O       0.81040000       0.49930000      -0.81620000        8 
C      -1.58520000       0.67250000      -0.07170000        6 
C      -2.38770000      -0.46990000       0.40590000        6 
C       2.63860000      -0.27150000       0.05980000        6 
H      -0.36790000       0.38510000      -0.51760000        1 
H      -1.89300000       1.67540000       0.29100000        1 
H      -1.90050000      -1.46520000       0.34930000        1 
H      -3.23020000      -0.22850000       1.08700000        1 
H       3.73330000      -0.11760000       0.15310000        1 
H       2.19360000      -0.23530000       1.07870000        1 
H       2.46510000      -1.27010000      -0.39860000        1 
