9
Properties=species:S:1:pos:R:3:Z:I:1 pbc="F F F"
O      -0.74390000      -0.03680000       1.12250000        8 
O       2.27760000      -0.15630000      -0.25990000        8 
C      -0.17450000       0.54130000      -0.02770000        6 
C      -1.35940000      -0.33520000      -0.10770000        6 
H       0.82340000       0.06240000      -0.28420000        1 
H      -0.36700000       1.63360000      -0.07200000        1 
H      -2.34130000       0.17320000      -0.20540000        1 
H      -1.17310000      -1.38620000      -0.41170000        1 
H       3.05810000      -0.49600000       0.24610000        1 
