23
Properties=species:S:1:pos:R:3:Z:I:1 pbc="F F F"
O      -1.22720000      -2.01030000      -0.95270000        8 
C      -0.86750000       0.22060000      -0.12180000        6 
C      -1.51340000      -1.15260000       0.11750000        6 
C      -1.03960000       1.11660000       1.10970000        6 
C      -1.45800000       0.90190000      -1.36270000        6 
C       2.45370000       0.90420000       0.60330000        6 
C       2.24090000      -1.37780000      -0.32100000        6 
C       1.76200000      -0.13770000      -0.21620000        6 
H       0.34680000       0.05560000      -0.30860000        1 
H      -2.61600000      -1.04040000       0.22870000        1 
H      -1.10590000      -1.59360000       1.05500000        1 
H      -0.54280000       2.09590000       0.94220000        1 
H      -0.57020000       0.64110000       1.99700000        1 
H      -2.11670000       1.29050000       1.32170000        1 
H      -1.28340000       0.27830000      -2.26480000        1 
H      -0.96790000       1.88500000      -1.52760000        1 
H      -2.55110000       1.06140000      -1.24100000        1 
H       3.47910000       1.07610000       0.21300000        1 
H       2.50930000       0.57900000       1.66360000        1 
H       1.88110000       1.85270000       0.54560000        1 
H       3.15400000      -1.66960000       0.18940000        1 
H       1.71260000      -2.10760000      -0.92420000        1 
H      -1.67960000      -2.86920000      -0.74600000        1 
