22
Properties=species:S:1:pos:R:3:Z:I:1 pbc="F F F"
C      -0.93300000      -0.11240000      -0.12880000        6 
C      -1.50450000       0.02190000       1.28610000        6 
C      -1.73350000       0.74020000      -1.11820000        6 
C      -0.91820000      -1.57970000      -0.56860000        6 
C       2.26360000      -0.44230000      -0.41650000        6 
C       2.21220000       1.54660000       1.04930000        6 
C       1.55480000       0.66620000       0.29370000        6 
H       0.23550000       0.30110000      -0.11650000        1 
H      -2.55510000      -0.33880000       1.32190000        1 
H      -1.47740000       1.08440000       1.60890000        1 
H      -0.89560000      -0.57120000       2.00110000        1 
H      -1.28940000       0.66400000      -2.13340000        1 
H      -2.79160000       0.40310000      -1.16160000        1 
H      -1.70780000       1.80700000      -0.80990000        1 
H      -0.30570000      -2.18250000       0.13530000        1 
H      -1.94940000      -1.99320000      -0.59390000        1 
H      -0.46920000      -1.66990000      -1.58050000        1 
H       2.77960000      -1.09600000       0.31820000        1 
H       3.00660000      -0.02430000      -1.12810000        1 
H       1.52310000      -1.04620000      -0.98010000        1 
H       1.66530000       2.33790000       1.54980000        1 
H       3.28940000       1.48410000       1.17200000        1 
