12
Properties=species:S:1:pos:R:3:Z:I:1 pbc="F F F"
C      -1.22720000      -1.11280000       0.10480000        6 
C      -1.33890000       1.35310000       0.22380000        6 
C      -0.63190000       0.25190000      -0.03260000        6 
C       2.20820000       0.09180000      -0.25060000        6 
C       3.38590000       0.02030000      -0.49740000        6 
H      -1.55830000      -1.27960000       1.15160000        1 
H      -0.46230000      -1.87210000      -0.15780000        1 
H      -2.09420000      -1.22020000      -0.58080000        1 
H      -2.37530000       1.29080000       0.54230000        1 
H      -0.87440000       2.32660000       0.11350000        1 
H       0.54850000       0.19270000       0.09730000        1 
H       4.42000000      -0.04260000      -0.71420000        1 
