23
Properties=species:S:1:pos:R:3:Z:I:1 pbc="F F F"
O      -0.53390000       0.03080000      -1.99990000        8 
C      -0.89890000      -0.22950000       0.38010000        6 
C      -2.32420000       0.31840000       0.56130000        6 
C      -0.11310000       0.46900000      -0.73780000        6 
C      -3.26380000      -0.06850000      -0.57990000        6 
C       2.48670000      -1.05070000       0.94320000        6 
C       3.34930000       1.08970000       0.05910000        6 
C       2.40040000       0.15290000       0.06030000        6 
H      -2.30010000       1.42490000       0.66570000        1 
H      -2.73830000      -0.09670000       1.50580000        1 
H      -0.92570000      -1.32650000       0.20160000        1 
H      -0.34870000      -0.06700000       1.33200000        1 
H       1.10990000       0.22690000      -0.59410000        1 
H      -0.24430000       1.57000000      -0.67070000        1 
H      -3.23000000      -1.16410000      -0.75950000        1 
H      -4.30400000       0.21320000      -0.31210000        1 
H      -2.99260000       0.47090000      -1.51050000        1 
H       2.51650000      -0.73920000       2.00870000        1 
H       3.39940000      -1.63520000       0.70120000        1 
H       1.59440000      -1.68870000       0.77790000        1 
H       4.21910000       1.00560000       0.70400000        1 
H       3.25350000       1.94940000      -0.59470000        1 
H      -0.11160000      -0.85570000      -2.14170000        1 
