19
Properties=species:S:1:pos:R:3:Z:I:1 pbc="F F F"
C      -1.07950000       0.16820000      -0.69500000        6 
C      -1.70620000      -1.01880000       0.02860000        6 
C      -1.65960000       1.48900000      -0.20070000        6 
C       1.98870000      -1.35420000       0.10690000        6 
C       2.07780000       1.06790000       0.58920000        6 
C       1.50260000       0.05070000      -0.05310000        6 
H       0.17170000       0.16330000      -0.49500000        1 
H      -1.26270000       0.07180000      -1.78690000        1 
H      -1.26030000      -1.96120000      -0.35270000        1 
H      -2.80240000      -1.04510000      -0.14940000        1 
H      -1.51150000      -0.95000000       1.11990000        1 
H      -1.18060000       2.32960000      -0.74500000        1 
H      -2.75470000       1.52300000      -0.38410000        1 
H      -1.46390000       1.61210000       0.88570000        1 
H       3.04630000      -1.43050000      -0.22300000        1 
H       1.90740000      -1.66600000       1.16960000        1 
H       1.36600000      -2.02840000      -0.51630000        1 
H       2.92230000       0.90480000       1.25230000        1 
H       1.69860000       2.07400000       0.44920000        1 
