11
Properties=species:S:1:pos:R:3:Z:I:1 pbc="F F F"
O      -1.77010000      -1.04320000      -0.72460000        8 
C       0.69720000      -0.76190000      -0.14610000        6 
C       0.38270000       1.63270000       0.44260000        6 
C       0.15970000       0.61490000      -0.39100000        6 
H       1.28680000      -0.81360000       0.79440000        1 
H      -0.14920000      -1.47610000      -0.07910000        1 
H       1.34890000      -1.05420000      -0.99500000        1 
H       0.97130000       1.50350000       1.34580000        1 
H      -0.03050000       2.60940000       0.21660000        1 
H      -0.82270000      -0.07160000      -0.67640000        1 
H      -2.07410000      -1.14000000       0.21290000        1 
