23
Properties=species:S:1:pos:R:3:Z:I:1 pbc="F F F"
O      -1.40110000       0.10830000      -1.86320000        8 
C      -1.50820000      -0.44510000      -0.57510000        6 
C      -1.41910000       0.64680000       0.50790000        6 
C      -0.43070000      -1.51280000      -0.36640000        6 
C      -2.54630000       1.66890000       0.37560000        6 
C       3.32310000      -0.99650000       0.64960000        6 
C       1.67650000       0.64470000      -0.18840000        6 
C       1.97830000      -0.61770000       0.11680000        6 
H      -2.49830000      -0.94500000      -0.49510000        1 
H      -0.44170000       1.17260000       0.44040000        1 
H      -1.48760000       0.17690000       1.51350000        1 
H      -2.46480000       2.41860000       1.19060000        1 
H      -3.53410000       1.16680000       0.45310000        1 
H      -2.47870000       2.19850000      -0.59830000        1 
H       0.74900000      -0.97860000      -0.41320000        1 
H      -0.56500000      -2.00690000       0.61950000        1 
H      -0.50690000      -2.28520000      -1.16080000        1 
H       3.34830000      -2.09060000       0.83090000        1 
H       3.51610000      -0.46650000       1.60620000        1 
H       4.11170000      -0.73330000      -0.08670000        1 
H       0.69090000       0.88270000      -0.57260000        1 
H       2.40350000       1.44080000      -0.05800000        1 
H      -0.51490000       0.55250000      -1.92660000        1 
