17
Properties=species:S:1:pos:R:3:Z:I:1 pbc="F F F"
O       1.56430000      -0.77530000       1.36850000        8 
C       1.28630000       0.28670000       0.49740000        6 
C       1.83300000      -0.01060000      -0.89270000        6 
C      -1.51570000      -1.02730000      -0.29250000        6 
C      -2.22300000       1.25600000       0.39010000        6 
C      -1.38330000       0.22670000       0.51650000        6 
H       0.04210000       0.43290000       0.42250000        1 
H       1.72360000       1.23510000       0.88400000        1 
H       2.93740000      -0.12140000      -0.85360000        1 
H       1.57870000       0.82400000      -1.57920000        1 
H       1.38410000      -0.94800000      -1.28350000        1 
H      -1.65160000      -1.88930000       0.39260000        1 
H      -2.38130000      -0.98050000      -0.98790000        1 
H      -0.58860000      -1.17890000      -0.88280000        1 
H      -3.04870000       1.22710000      -0.31430000        1 
H      -2.08070000       2.14030000       1.00120000        1 
H       2.52330000      -0.69740000       1.61380000        1 
