18
Properties=species:S:1:pos:R:3:Z:I:1 pbc="F F F"
O       2.33320000      -0.18510000      -2.00320000        8 
C       0.95380000      -1.10010000      -0.32290000        6 
C       2.16310000       1.18250000      -0.08880000        6 
C      -1.69080000       0.70310000      -0.29710000        6 
C       1.85320000      -0.04500000      -0.88860000        6 
C      -2.30870000      -1.01100000       1.37240000        6 
C      -1.36270000      -0.39660000       0.66140000        6 
H      -0.18900000      -0.59470000      -0.06860000        1 
H       1.39250000      -1.50100000       0.61470000        1 
H       0.82500000      -1.93500000      -1.04450000        1 
H       2.84050000       1.85830000      -0.65350000        1 
H       1.22280000       1.72670000       0.13890000        1 
H       2.65710000       0.89340000       0.86230000        1 
H      -2.17070000       1.54700000       0.24220000        1 
H      -0.75560000       1.06310000      -0.77280000        1 
H      -2.37690000       0.32800000      -1.08570000        1 
H      -3.35300000      -0.72890000       1.27560000        1 
H      -2.03390000      -1.80460000       2.05820000        1 
