23
Properties=species:S:1:pos:R:3:Z:I:1 pbc="F F F"
O      -0.21380000       0.07820000       0.65540000        8 
C       1.70740000       0.97470000      -0.48750000        6 
C       2.67720000      -0.21800000      -0.53060000        6 
C       0.23320000       0.56490000      -0.57670000        6 
C       2.63900000      -1.06720000       0.73920000        6 
C      -3.65070000       0.34180000       0.94340000        6 
C      -1.94040000      -0.51870000      -0.64210000        6 
C      -2.59920000      -0.63440000       0.51250000        6 
H       3.70910000       0.17730000      -0.65160000        1 
H       2.45950000      -0.85770000      -1.41330000        1 
H       1.93460000       1.62740000      -1.35850000        1 
H       1.87990000       1.58010000       0.42930000        1 
H      -0.37110000       1.45740000      -0.84890000        1 
H       0.09070000      -0.20640000      -1.36490000        1 
H       3.46580000      -1.80800000       0.71190000        1 
H       2.76610000      -0.42930000       1.63960000        1 
H       1.68240000      -1.62470000       0.80850000        1 
H      -3.34780000       0.80090000       1.90690000        1 
H      -4.61010000      -0.19670000       1.08670000        1 
H      -3.79910000       1.14720000       0.19220000        1 
H      -2.14190000       0.29940000      -1.32690000        1 
H      -1.18840000      -1.25440000      -0.90470000        1 
H      -1.38240000      -0.23370000       0.48000000        1 
