23
Properties=species:S:1:pos:R:3:Z:I:1 pbc="F F F"
O      -1.84510000      -1.30160000       0.35940000        8 
C      -1.62930000       0.08750000       0.39740000        6 
C      -1.19300000       0.62030000      -0.98060000        6 
C      -2.88810000       0.80710000       0.89280000        6 
C       0.11620000      -0.01480000      -1.44150000        6 
C       2.66960000      -1.49840000       0.22180000        6 
C       2.75620000       0.89270000       0.84010000        6 
C       2.09630000      -0.11850000       0.27420000        6 
H      -0.81670000       0.29010000       1.12900000        1 
H      -1.98280000       0.41790000      -1.73670000        1 
H      -1.04570000       1.72070000      -0.92170000        1 
H       1.05310000       0.21800000      -0.57730000        1 
H      -0.00570000      -1.11160000      -1.56620000        1 
H       0.41670000       0.42030000      -2.41790000        1 
H      -2.69150000       1.89540000       0.99830000        1 
H      -3.72880000       0.65960000       0.18150000        1 
H      -3.18440000       0.40570000       1.88510000        1 
H       1.95230000      -2.17180000      -0.29070000        1 
H       3.62610000      -1.49150000      -0.34240000        1 
H       2.84800000      -1.87540000       1.25100000        1 
H       3.73650000       0.74280000       1.28270000        1 
H       2.30950000       1.88050000       0.85990000        1 
H      -2.56940000      -1.47520000      -0.29780000        1 
