17
Properties=species:S:1:pos:R:3:Z:I:1 pbc="F F F"
C       1.07350000      -0.17010000      -0.37230000        6 
C      -1.53810000      -0.09090000      -1.12540000        6 
C       1.61680000       0.72460000       0.69740000        6 
C       2.88530000       1.13950000       0.67270000        6 
C      -2.51400000      -1.03560000       0.93910000        6 
C      -1.50310000      -0.41020000       0.33490000        6 
H      -0.11640000      -0.42020000      -0.13960000        1 
H       1.64330000      -1.12300000      -0.39570000        1 
H       1.14910000       0.33070000      -1.36060000        1 
H      -0.59830000       0.42630000      -1.40790000        1 
H      -1.62830000      -1.02640000      -1.71700000        1 
H      -2.39870000       0.57440000      -1.34870000        1 
H       0.96590000       1.04060000       1.50690000        1 
H       3.55580000       0.83710000      -0.12630000        1 
H       3.26000000       1.78800000       1.45790000        1 
H      -3.39880000      -1.33380000       0.38450000        1 
H      -2.45420000      -1.25100000       2.00010000        1 
