22
Properties=species:S:1:pos:R:3:Z:I:1 pbc="F F F"
C      -0.89740000      -0.28200000      -0.55750000        6 
C      -1.82000000      -0.31310000       0.66470000        6 
C      -0.57550000      -1.69180000      -1.04170000        6 
C      -2.13220000       1.09850000       1.15130000        6 
C       2.67740000      -0.44420000       0.30580000        6 
C       1.84560000       1.69240000      -0.61640000        6 
C       1.58850000       0.46040000      -0.17550000        6 
H       0.18570000       0.30280000      -0.25690000        1 
H      -1.38590000       0.28020000      -1.38320000        1 
H      -2.77260000      -0.82380000       0.40360000        1 
H      -1.33050000      -0.87710000       1.48830000        1 
H       0.09490000      -1.63540000      -1.92480000        1 
H      -0.06090000      -2.26490000      -0.24150000        1 
H      -1.50680000      -2.22220000      -1.33430000        1 
H      -2.64390000       1.67760000       0.35330000        1 
H      -1.19690000       1.62210000       1.44290000        1 
H      -2.80070000       1.04700000       2.03650000        1 
H       3.19880000       0.01570000       1.17170000        1 
H       2.23480000      -1.41100000       0.62200000        1 
H       3.40640000      -0.62980000      -0.51110000        1 
H       2.86060000       2.07780000      -0.63900000        1 
H       1.03070000       2.32080000      -0.95800000        1 
