12
Properties=species:S:1:pos:R:3:Z:I:1 pbc="F F F"
O       3.24750000      -0.99980000      -0.67470000        8 
C      -0.57380000      -0.81350000       0.17290000        6 
C      -1.82800000      -0.81050000      -0.28080000        6 
C      -0.14040000       1.65320000       0.17000000        6 
C       0.24490000       0.39720000       0.39060000        6 
C       2.81690000      -0.39810000       0.29460000        6 
H      -0.11390000      -1.76640000       0.40080000        1 
H      -2.35140000      -1.74910000      -0.40930000        1 
H      -2.35480000       0.09870000      -0.53000000        1 
H      -1.12270000       1.90520000      -0.20140000        1 
H       0.55340000       2.45840000       0.36880000        1 
H       1.62250000       0.02460000       0.29860000        1 
