23
Properties=species:S:1:pos:R:3:Z:I:1 pbc="F F F"
O      -1.60860000       0.70460000       1.38540000        8 
C      -0.97890000      -0.78010000      -0.43590000        6 
C      -0.57460000      -0.10310000       0.88580000        6 
C      -1.31300000       0.25880000      -1.51300000        6 
C      -2.14770000      -1.75290000      -0.23650000        6 
C       2.60530000       0.40120000      -0.63680000        6 
C       2.33000000       1.65790000       1.47320000        6 
C       1.77630000       1.07430000       0.40970000        6 
H      -0.10470000      -1.36880000      -0.79150000        1 
H       0.43160000       0.61900000       0.68330000        1 
H      -0.27450000      -0.87270000       1.63470000        1 
H      -1.52960000      -0.24840000      -2.47740000        1 
H      -2.19990000       0.86090000      -1.22070000        1 
H      -0.45030000       0.94120000      -1.66810000        1 
H      -3.06880000      -1.21050000       0.06590000        1 
H      -2.35310000      -2.29880000      -1.18210000        1 
H      -1.89570000      -2.50020000       0.54590000        1 
H       3.18770000      -0.42920000      -0.18450000        1 
H       3.30020000       1.13300000      -1.10030000        1 
H       1.93790000      -0.01070000      -1.42130000        1 
H       3.40710000       1.66160000       1.61160000        1 
H       1.69750000       2.13680000       2.21230000        1 
H      -2.17410000       0.12620000       1.96050000        1 
