13
Properties=species:S:1:pos:R:3:Z:I:1 pbc="F F F"
O       3.55780000       1.11220000      -0.43740000        8 
C      -1.00900000       1.00340000      -0.46180000        6 
C      -1.66590000      -0.88240000       0.99390000        6 
C       1.80200000      -0.71560000      -0.27110000        6 
C      -0.73100000      -0.27450000       0.26280000        6 
C       2.70240000       0.22170000      -0.35640000        6 
H      -1.82740000       0.85320000      -1.19730000        1 
H      -1.29960000       1.79490000       0.26090000        1 
H      -0.09350000       1.32380000      -1.00010000        1 
H      -1.42860000      -1.80830000       1.50590000        1 
H      -2.66400000      -0.46440000       1.08520000        1 
H       0.63080000      -0.44990000       0.23650000        1 
H       2.02600000      -1.71400000      -0.62110000        1 
