15
Properties=species:S:1:pos:R:3:Z:I:1 pbc="F F F"
O       3.09630000      -0.89470000       0.93320000        8 
C       1.48830000      -0.16870000      -0.63560000        6 
C      -1.73680000      -1.00440000       0.02610000        6 
C       2.46060000       0.04290000       0.47870000        6 
C      -1.46750000       1.44660000       0.19080000        6 
C      -1.08420000       0.28810000      -0.34690000        6 
H       0.32490000       0.18790000      -0.25390000        1 
H       1.78950000       0.44570000      -1.50930000        1 
H       1.45980000      -1.23790000      -0.93650000        1 
H      -1.61320000      -1.19290000       1.11350000        1 
H      -2.81820000      -0.97060000      -0.22450000        1 
H      -1.26000000      -1.83020000      -0.54060000        1 
H       2.60240000       1.03750000       0.88780000        1 
H      -2.27070000       1.48590000       0.92070000        1 
H      -0.97130000       2.36480000      -0.10340000        1 
