15
Properties=species:S:1:pos:R:3:Z:I:1 pbc="F F F"
C      -2.11350000       0.44900000       0.57020000        6 
C       1.32900000       1.07110000      -0.27120000        6 
C      -1.21620000      -1.44100000      -0.74500000        6 
C      -1.02760000      -0.24360000      -0.18930000        6 
C       2.39550000       0.16060000       0.14620000        6 
C       3.27400000      -0.58970000       0.49010000        6 
H      -2.98660000       0.62770000      -0.09240000        1 
H      -1.73480000       1.42400000       0.94000000        1 
H      -2.42570000      -0.17050000       1.43740000        1 
H       0.21720000       0.45810000      -0.25060000        1 
H       1.28740000       1.93550000       0.42310000        1 
H       1.53260000       1.43290000      -1.30000000        1 
H      -0.40580000      -1.91360000      -1.28870000        1 
H      -2.17070000      -1.95220000      -0.66170000        1 
H       4.04530000      -1.24850000       0.79200000        1 
