18
Properties=species:S:1:pos:R:3:Z:I:1 pbc="F F F"
O       3.10310000       1.11410000      -0.30980000        8 
C       1.79250000      -0.79190000      -0.80230000        6 
C       1.03660000      -0.88060000       0.51800000        6 
C      -2.44800000      -0.14360000      -0.34540000        6 
C       2.27700000       0.60430000      -1.05020000        6 
C      -1.41900000       1.25720000       1.41130000        6 
C      -1.32510000       0.22740000       0.56950000        6 
H       2.65840000      -1.48800000      -0.78700000        1 
H       1.11330000      -1.09370000      -1.62790000        1 
H       0.03070000      -0.06380000       0.50860000        1 
H       0.65660000      -1.91420000       0.66050000        1 
H       1.70740000      -0.62870000       1.36700000        1 
H      -2.67830000       0.70230000      -1.02720000        1 
H      -2.14960000      -1.02440000      -0.95010000        1 
H      -3.35180000      -0.40030000       0.24660000        1 
H       1.90090000       1.16520000      -1.89960000        1 
H      -2.32030000       1.86130000       1.45760000        1 
H      -0.58440000       1.49730000       2.06050000        1 
