17
Properties=species:S:1:pos:R:3:Z:I:1 pbc="F F F"
O      -1.80780000       1.69860000       0.27070000        8 
C      -2.06850000       0.34140000       0.49230000        6 
C      -1.21530000      -0.49900000      -0.44340000        6 
C       2.14880000      -1.09760000       0.48200000        6 
C       1.52780000       0.90010000      -0.86090000        6 
C       1.30960000       0.10890000       0.19130000        6 
H      -3.14330000       0.12540000       0.30160000        1 
H      -1.82320000       0.07600000       1.54440000        1 
H       0.03950000      -0.25980000      -0.22600000        1 
H      -1.45650000      -0.25620000      -1.50000000        1 
H      -1.41390000      -1.57710000      -0.26620000        1 
H       1.50100000      -1.99830000       0.48770000        1 
H       2.95000000      -1.23560000      -0.27570000        1 
H       2.61590000      -0.98350000       1.48180000        1 
H       2.33390000       0.69930000      -1.55990000        1 
H       0.88930000       1.76120000      -1.02390000        1 
H      -2.38750000       2.19620000       0.90430000        1 
