17
Properties=species:S:1:pos:R:3:Z:I:1 pbc="F F F"
O       3.12360000      -0.84980000      -0.51870000        8 
O       3.56040000       1.31940000       0.12380000        8 
O       1.79990000      -0.64550000      -0.53740000        8 
C      -0.67920000      -0.29100000      -1.03120000        6 
C      -2.27410000       1.14270000       0.43500000        6 
C      -1.48410000      -0.12100000       0.22570000        6 
C      -1.48720000      -1.09460000       1.14690000        6 
C       3.99830000       0.17720000      -0.17570000        6 
H       0.58400000      -0.46190000      -0.72540000        1 
H      -0.76860000       0.60400000      -1.68290000        1 
H      -1.04220000      -1.17650000      -1.59460000        1 
H      -2.82050000       1.13630000       1.40260000        1 
H      -3.01350000       1.25670000      -0.38520000        1 
H      -1.58680000       2.01450000       0.42540000        1 
H      -2.05900000      -0.99780000       2.06480000        1 
H      -0.91490000      -2.00480000       0.99330000        1 
H       5.06370000      -0.00790000      -0.16650000        1 
