21
Properties=species:S:1:pos:R:3:Z:I:1 pbc="F F F"
O       2.20710000       1.55480000      -0.86910000        8 
C      -0.72270000      -0.14850000       1.03960000        6 
C      -2.72810000       0.86910000      -0.26110000        6 
C       2.32480000       0.91070000       0.36860000        6 
C      -1.83330000      -0.30290000       0.03950000        6 
C      -2.01340000      -1.48080000      -0.57470000        6 
C       2.35350000      -1.39640000      -0.53560000        6 
C       1.79640000      -0.48610000       0.26530000        6 
H       0.36470000      -0.38010000       0.49510000        1 
H      -0.87010000      -0.85990000       1.87960000        1 
H      -0.70050000       0.88330000       1.45020000        1 
H      -2.11750000       1.71010000      -0.65160000        1 
H      -3.50380000       0.61750000      -1.01600000        1 
H      -3.23690000       1.19440000       0.67040000        1 
H       3.39050000       0.88290000       0.68830000        1 
H       1.73110000       1.45660000       1.13360000        1 
H      -1.36540000      -2.32460000      -0.35630000        1 
H      -2.80750000      -1.61960000      -1.30210000        1 
H       3.21880000      -1.15130000      -1.14420000        1 
H       1.93850000      -2.39710000      -0.58040000        1 
H       2.57380000       2.46780000      -0.73900000        1 
