13
Properties=species:S:1:pos:R:3:Z:I:1 pbc="F F F"
O       2.22570000      -1.86960000       1.07980000        8 
C       1.08010000      -0.31280000      -0.51910000        6 
C      -1.37270000      -0.52730000       0.27150000        6 
C      -0.20150000       0.34580000      -0.08740000        6 
C      -0.29750000       1.68280000      -0.02280000        6 
H       1.47920000      -1.02960000       0.36350000        1 
H       0.89430000      -0.92650000      -1.42530000        1 
H       1.87230000       0.43030000      -0.75400000        1 
H      -1.09360000      -1.19330000       1.11470000        1 
H      -2.26000000       0.06940000       0.57410000        1 
H      -1.65130000      -1.15130000      -0.60330000        1 
H       0.54450000       2.31810000      -0.28030000        1 
H      -1.21970000       2.16400000       0.28850000        1 
