20
Properties=species:S:1:pos:R:3:Z:I:1 pbc="F F F"
C      -0.48990000      -0.11590000      -1.03940000        6 
C      -2.84920000      -0.57840000      -0.00570000        6 
C       2.71130000      -1.22750000      -0.05620000        6 
C      -1.66530000       0.32780000      -0.21170000        6 
C      -1.65610000       1.54390000       0.34980000        6 
C       2.09540000       0.91970000       1.00070000        6 
C       1.71850000      -0.25620000       0.49730000        6 
H       0.53600000      -0.09930000      -0.34670000        1 
H      -0.63270000      -1.14500000      -1.43000000        1 
H      -0.35730000       0.57110000      -1.90180000        1 
H      -3.76680000      -0.09270000      -0.40010000        1 
H      -2.71470000      -1.54800000      -0.52890000        1 
H      -2.98250000      -0.78130000       1.07810000        1 
H       2.17630000      -2.13000000      -0.41660000        1 
H       3.25960000      -0.76840000      -0.90580000        1 
H       3.43270000      -1.52570000       0.73380000        1 
H      -0.81130000       2.21300000       0.21410000        1 
H      -2.49330000       1.88500000       0.95180000        1 
H       1.34750000       1.59940000       1.39370000        1 
H       3.14200000       1.20870000       1.02370000        1 
