12
Properties=species:S:1:pos:R:3:Z:I:1 pbc="F F F"
O       0.69770000      -0.89080000      -2.15000000        8 
C      -0.25010000       0.25010000       1.27280000        6 
C      -0.06470000       0.28570000      -0.21620000        6 
C      -0.43710000       1.37420000      -0.89750000        6 
C       0.52550000      -0.88140000      -0.90160000        6 
H      -1.32610000       0.36990000       1.52120000        1 
H       0.32600000       1.07460000       1.74380000        1 
H       0.10240000      -0.71180000       1.70130000        1 
H      -0.31890000       1.43660000      -1.97200000        1 
H      -0.86920000       2.22540000      -0.38550000        1 
H       0.88050000      -1.93300000      -0.20700000        1 
H       0.73410000      -2.59960000       0.49080000        1 
