14
Properties=species:S:1:pos:R:3:Z:I:1 pbc="F F F"
O       2.53520000       0.85200000      -0.89440000        8 
C       0.72830000      -0.79770000      -0.05080000        6 
C      -0.80860000       1.29320000       0.07070000        6 
C      -0.63140000      -0.19770000       0.17360000        6 
C      -1.67020000      -0.99470000       0.46250000        6 
H       1.48160000      -0.00230000      -0.28060000        1 
H       0.69150000      -1.50610000      -0.90540000        1 
H       1.05590000      -1.34080000       0.86090000        1 
H      -0.15660000       1.79540000       0.81570000        1 
H      -0.52030000       1.63050000      -0.94700000        1 
H      -1.85960000       1.60140000       0.25870000        1 
H      -2.66250000      -0.58650000       0.62900000        1 
H      -1.53970000      -2.07050000       0.53620000        1 
H       3.35630000       0.32370000      -0.72920000        1 
