12
Properties=species:S:1:pos:R:3:Z:I:1 pbc="F F F"
O       1.70150000       1.26740000      -1.15910000        8 
O       2.62160000      -1.55050000       0.42230000        8 
C      -0.74200000      -0.82160000       0.73420000        6 
C      -0.22110000       0.28070000      -0.14160000        6 
C      -1.07610000       1.17540000      -0.64760000        6 
C       1.22550000       0.35750000      -0.42870000        6 
H      -1.24130000      -0.38890000       1.62710000        1 
H      -1.47490000      -1.43640000       0.16970000        1 
H       0.07830000      -1.48540000       1.07980000        1 
H      -0.73800000       1.98420000      -1.28310000        1 
H      -2.13560000       1.11080000      -0.43130000        1 
H       2.00220000      -0.49320000       0.05820000        1 
