15
Properties=species:S:1:pos:R:3:Z:I:1 pbc="F F F"
O       1.95150000       0.10470000      -0.29140000        8 
O      -1.39080000       2.11740000      -1.27450000        8 
C      -0.53530000      -0.01680000      -0.11800000        6 
C      -0.69840000      -1.26230000      -0.98250000        6 
C       0.82390000       0.01120000       0.52500000        6 
C       0.95940000      -0.04580000       1.85230000        6 
H      -0.65100000       0.88780000      -0.75230000        1 
H      -1.34560000      -0.00210000       0.64410000        1 
H       0.05930000      -1.27340000      -1.79500000        1 
H      -0.58590000      -2.17770000      -0.36280000        1 
H      -1.70930000      -1.26610000      -1.44200000        1 
H       1.94170000      -0.02260000       2.30620000        1 
H       0.09620000      -0.11830000       2.50190000        1 
H       2.89010000       0.12820000       0.09090000        1 
H      -1.80580000       2.93570000      -0.90200000        1 
