14
Properties=species:S:1:pos:R:3:Z:I:1 pbc="F F F"
O       0.38680000      -0.99650000      -1.78360000        8 
C      -0.33860000      -0.27620000       0.50950000        6 
C      -1.49950000       0.62170000       0.09650000        6 
C       0.69320000      -0.35730000      -0.58390000        6 
C       1.90620000       0.16800000      -0.42320000        6 
H       0.15210000       0.17150000       1.55630000        1 
H      -0.71870000      -1.29750000       0.72490000        1 
H      -2.01010000       0.21450000      -0.80170000        1 
H      -2.23530000       0.67860000       0.92590000        1 
H      -1.13140000       1.64670000      -0.12240000        1 
H       2.18460000       0.67350000       0.49280000        1 
H       2.63880000       0.09920000      -1.21730000        1 
H      -0.51730000      -1.42770000      -1.93430000        1 
H       0.48920000       0.08140000       2.56040000        1 
