12
Properties=species:S:1:pos:R:3:Z:I:1 pbc="F F F"
O       1.25820000      -0.45350000      -1.13280000        8 
O       0.88230000      -1.16090000      -0.08490000        8 
C       1.91380000       0.67150000      -0.61620000        6 
C      -1.60460000      -0.88240000       0.24630000        6 
C      -1.95520000       0.23650000       0.87440000        6 
H       2.25440000       1.30760000      -1.45890000        1 
H       2.80660000       0.36800000      -0.02600000        1 
H       1.22270000       1.27170000       0.01600000        1 
H      -0.22100000      -1.16250000       0.00070000        1 
H      -2.36200000      -1.58660000      -0.08230000        1 
H      -1.19360000       0.93650000       1.20040000        1 
H      -3.00150000       0.45410000       1.06330000        1 
