21
Properties=species:S:1:pos:R:3:Z:I:1 pbc="F F F"
O       0.11830000      -0.54510000      -0.69140000        8 
O       0.90640000      -0.10010000       0.27170000        8 
C      -1.22360000      -0.33060000      -0.29370000        6 
C      -1.54760000      -1.11380000       0.99730000        6 
C      -2.12300000      -0.85370000      -1.42470000        6 
C      -1.50540000       1.17470000      -0.09470000        6 
C       3.18360000       0.99910000       0.18490000        6 
C       4.26600000       0.39200000       0.66360000        6 
H      -2.62740000      -1.02850000       1.24690000        1 
H      -1.29700000      -2.18860000       0.86790000        1 
H      -0.96690000      -0.72090000       1.85890000        1 
H      -1.93700000      -1.93590000      -1.59660000        1 
H      -1.90710000      -0.31260000      -2.37120000        1 
H      -3.19780000      -0.71540000      -1.17630000        1 
H      -2.58360000       1.34750000       0.11320000        1 
H      -1.22460000       1.74230000      -1.00770000        1 
H      -0.92450000       1.57980000       0.76110000        1 
H       1.92880000       0.30790000       0.15510000        1 
H       3.24490000       2.01760000      -0.18440000        1 
H       4.19840000      -0.62610000       1.03130000        1 
H       5.21900000       0.91040000       0.68880000        1 
