8
Properties=species:S:1:pos:R:3:Z:I:1 pbc="F F F"
O       2.12620000      -1.82640000       1.00690000        8 
C      -0.10880000       0.75980000      -0.37580000        6 
C      -1.27480000       0.12980000      -0.26290000        6 
C       1.73840000      -0.68850000       0.80240000        6 
H       1.08620000       0.12840000       0.06560000        1 
H      -0.06350000       1.75590000      -0.80400000        1 
H      -1.31370000      -0.86570000       0.16590000        1 
H      -2.19010000       0.60670000      -0.59800000        1 
