21
Properties=species:S:1:pos:R:3:Z:I:1 pbc="F F F"
O       0.19940000      -1.64490000       0.71680000        8 
O       1.33750000      -1.29020000       0.14990000        8 
C      -1.28630000      -0.37310000      -0.72280000        6 
C      -2.01340000       0.31490000       0.43990000        6 
C      -0.74550000      -1.75100000      -0.31990000        6 
C      -2.57480000       1.66840000       0.01410000        6 
C       3.02880000       0.50960000       0.18640000        6 
C       4.29560000       0.17380000       0.41430000        6 
H      -2.85070000      -0.32690000       0.79110000        1 
H      -1.30970000       0.47040000       1.28620000        1 
H      -0.44700000       0.26620000      -1.07380000        1 
H      -1.99320000      -0.50670000      -1.57080000        1 
H      -0.31460000      -2.26500000      -1.21060000        1 
H      -1.58760000      -2.38310000       0.03450000        1 
H      -3.09300000       2.14300000       0.87380000        1 
H      -1.75410000       2.33850000      -0.32000000        1 
H      -3.30440000       1.54060000      -0.81380000        1 
H       2.06440000      -0.50290000      -0.12640000        1 
H       2.72010000       1.54880000       0.23610000        1 
H       4.59810000      -0.86650000       0.36320000        1 
H       5.03040000       0.93620000       0.65170000        1 
