8
Properties=species:S:1:pos:R:3:Z:I:1 pbc="F F F"
O       1.78850000       0.87250000      -0.52490000        8 
C      -0.17840000      -0.29280000       0.63910000        6 
C      -1.29830000      -0.20310000      -0.07380000        6 
H       0.85860000       0.26230000       0.24220000        1 
H      -0.16530000      -0.85070000       1.56980000        1 
H      -1.30800000       0.35530000      -1.00370000        1 
H      -2.20640000      -0.68730000       0.27040000        1 
H       2.50930000       0.54380000      -1.11910000        1 
