10
Properties=species:S:1:pos:R:3:Z:I:1 pbc="F F F"
C       0.80910000       0.42890000      -0.53050000        6 
C       1.83610000      -0.09160000       0.13570000        6 
C      -1.66650000      -0.11550000       0.26470000        6 
H      -0.46580000       0.03930000      -0.23420000        1 
H       0.97820000       1.16380000      -1.31080000        1 
H       2.85110000       0.21470000      -0.09590000        1 
H       1.66150000      -0.82580000       0.91470000        1 
H      -1.68160000      -0.85130000       1.09490000        1 
H      -2.42830000       0.66890000       0.45200000        1 
H      -1.89390000      -0.63140000      -0.69080000        1 
