7
Properties=species:S:1:pos:R:3:Z:I:1 pbc="F F F"
C       0.28600000       0.43400000      -0.10900000        6 
C      -0.93760000      -0.07060000      -0.24180000        6 
H       1.30930000      -0.35260000       0.39540000        1 
H       0.48880000       1.46120000      -0.39410000        1 
H      -1.13470000      -1.09790000       0.04470000        1 
H      -1.74260000       0.54100000      -0.63620000        1 
H       1.73080000      -0.91510000       0.94110000        1 
