15
Properties=species:S:1:pos:R:3:Z:I:1 pbc="F F F"
C      -0.31300000      -0.31290000      -1.31560000        6 
C      -1.16080000      -1.32980000      -0.62780000        6 
C      -2.04940000      -0.89720000       1.78470000        6 
C       2.32080000       1.98080000       0.00670000        6 
C      -1.60550000      -1.11360000       0.57940000        6 
C       1.72130000       0.79660000      -0.07700000        6 
H       0.69340000      -0.11210000      -0.67280000        1 
H      -0.02850000      -0.68240000      -2.32300000        1 
H      -0.87560000       0.63830000      -1.42770000        1 
H      -1.40670000      -2.25740000      -1.12790000        1 
H      -2.67440000      -1.63360000       2.27100000        1 
H      -1.79250000       0.01880000       2.29870000        1 
H       3.13640000       2.13450000       0.70590000        1 
H       1.99370000       2.79780000      -0.62680000        1 
H       2.04070000      -0.02780000       0.55220000        1 
