16
Properties=species:S:1:pos:R:3:Z:I:1 pbc="F F F"
C       0.81450000       0.44790000       0.45860000        6 
C       1.48190000      -0.71250000      -0.20460000        6 
C       2.19590000      -2.81860000       1.15760000        6 
C      -1.62870000       0.74650000      -0.64020000        6 
C       1.83940000      -1.76680000       0.47700000        6 
C      -2.46180000       1.93920000      -0.79520000        6 
C      -3.14810000       2.92190000      -0.92280000        6 
H      -0.36690000       0.63620000      -0.08700000        1 
H       1.43010000       1.35910000       0.30950000        1 
H       0.68320000       0.27780000       1.54970000        1 
H       1.66830000      -0.68090000      -1.26970000        1 
H       2.01230000      -2.86090000       2.22250000        1 
H       2.67540000      -3.64910000       0.65780000        1 
H      -1.19750000       0.46560000      -1.62310000        1 
H      -2.24750000      -0.09000000      -0.25520000        1 
H      -3.75060000       3.78470000      -1.03480000        1 
