17
Properties=species:S:1:pos:R:3:Z:I:1 pbc="F F F"
C       0.42030000      -0.55780000       0.69570000        6 
C      -3.01630000      -0.01240000       0.17010000        6 
C       1.46280000      -0.82300000      -0.34100000        6 
C      -1.72500000       0.64950000      -0.27390000        6 
C       3.69970000       0.51720000      -0.38020000        6 
C       2.58250000      -0.15230000      -0.36080000        6 
H      -0.65820000      -0.20540000       0.12320000        1 
H       0.23470000      -1.48620000       1.27480000        1 
H       0.73370000       0.24620000       1.39720000        1 
H      -3.06780000      -0.02100000       1.27880000        1 
H      -3.88650000       0.54670000      -0.23380000        1 
H      -3.04600000      -1.05730000      -0.20270000        1 
H       1.28550000      -1.58170000      -1.09150000        1 
H      -1.68370000       1.69320000       0.10280000        1 
H      -1.66180000       0.65410000      -1.38250000        1 
H       4.44070000       0.31080000      -1.14030000        1 
H       3.88570000       1.27940000       0.36400000        1 
