14
Properties=species:S:1:pos:R:3:Z:I:1 pbc="F F F"
C      -0.70680000      -1.54480000       0.51770000        6 
C      -0.29500000      -0.22560000      -0.04320000        6 
C      -1.96290000       1.77790000      -0.08810000        6 
C       2.27020000       0.10670000      -0.38090000        6 
C      -1.12960000       0.77710000      -0.06570000        6 
H      -1.56820000      -1.94990000      -0.05470000        1 
H      -0.99110000      -1.43280000       1.58550000        1 
H       0.14080000      -2.25710000       0.44410000        1 
H       0.94640000      -0.06550000      -0.53040000        1 
H      -1.65370000       2.73000000      -0.49710000        1 
H      -2.96400000       1.65630000       0.30240000        1 
H       2.70150000      -0.06490000       0.62670000        1 
H       2.68470000      -0.63710000      -1.09210000        1 
H       2.52780000       1.12980000      -0.72410000        1 
