18
Properties=species:S:1:pos:R:3:Z:I:1 pbc="F F F"
C       1.06420000       2.17740000      -0.01820000        6 
C      -1.98070000      -1.16190000       0.97840000        6 
C       0.81420000       0.71020000       0.07720000        6 
C      -1.94040000      -0.42760000      -1.39630000        6 
C       2.80260000      -0.97530000       0.13380000        6 
C      -1.68700000      -0.17580000      -0.11060000        6 
C       1.80920000      -0.13340000       0.10550000        6 
H       1.61520000       2.41000000      -0.95410000        1 
H       0.09450000       2.71650000      -0.02850000        1 
H       1.65740000       2.52050000       0.85600000        1 
H      -2.69200000      -0.70750000       1.69830000        1 
H      -1.03840000      -1.40820000       1.50970000        1 
H      -2.42360000      -2.09920000       0.57810000        1 
H      -0.44110000       0.25200000       0.13440000        1 
H       2.60980000      -2.03700000       0.20320000        1 
H       3.82020000      -0.61200000       0.08780000        1 
H      -1.70790000       0.32240000      -2.14400000        1 
H      -2.37610000      -1.37100000      -1.71100000        1 
