16
Properties=species:S:1:pos:R:3:Z:I:1 pbc="F F F"
C      -1.02130000       0.67000000       1.60380000        6 
C      -0.84600000       0.19170000       0.20230000        6 
C      -2.76100000      -1.09520000      -1.01210000        6 
C       1.53880000       0.43120000      -1.00650000        6 
C      -1.80430000      -0.45230000      -0.40560000        6 
C       2.71300000      -0.04220000      -0.27320000        6 
C       3.68030000      -0.43240000       0.33110000        6 
H      -1.87350000       1.38010000       1.66040000        1 
H      -1.21050000      -0.19090000       2.27950000        1 
H      -0.09780000       1.18950000       1.93280000        1 
H       0.37010000       0.43740000      -0.47660000        1 
H      -3.69270000      -1.28810000      -0.49830000        1 
H      -2.62350000      -1.43570000      -2.02920000        1 
H       1.63540000       1.51990000      -1.19700000        1 
H       1.46350000      -0.10820000      -1.97310000        1 
H       4.52960000      -0.77490000       0.86160000        1 
