18
Properties=species:S:1:pos:R:3:Z:I:1 pbc="F F F"
O       2.17350000      -1.73990000       1.07270000        8 
C      -0.38180000       1.24410000       0.60430000        6 
C       2.84910000       0.00620000      -0.35710000        6 
C      -0.82320000      -0.19780000       0.39730000        6 
C      -1.78410000      -0.30350000      -0.75390000        6 
C       1.83390000      -0.77360000       0.40930000        6 
C      -3.02910000      -0.76130000      -0.59550000        6 
H       0.11080000       1.62960000      -0.31350000        1 
H       0.34510000       1.28920000       1.44180000        1 
H      -1.25640000       1.88300000       0.85200000        1 
H       2.34850000       0.83940000      -0.89190000        1 
H       3.60670000       0.42330000       0.33900000        1 
H       3.34940000      -0.65300000      -1.09700000        1 
H      -1.25840000      -0.59590000       1.34020000        1 
H      -1.45200000      -0.00340000      -1.74330000        1 
H       0.45810000      -0.38840000       0.36700000        1 
H      -3.39510000      -1.07150000       0.37850000        1 
H      -3.69500000      -0.82650000      -1.44990000        1 
