21
Properties=species:S:1:pos:R:3:Z:I:1 pbc="F F F"
O       0.90720000       0.95160000      -1.13540000        8 
C       1.16860000      -0.65990000       0.56020000        6 
C       3.16240000       0.56850000      -0.55770000        6 
C      -1.97050000      -0.66730000      -1.28680000        6 
C       1.68880000       0.33290000      -0.43020000        6 
C      -1.45060000      -0.97230000       0.11300000        6 
C      -1.15570000       0.27840000       0.88940000        6 
C      -2.12830000       1.08860000       1.31710000        6 
H      -2.94830000      -0.14320000      -1.23450000        1 
H      -1.24030000      -0.03590000      -1.83590000        1 
H      -2.10490000      -1.61880000      -1.84190000        1 
H      -0.25020000      -0.71310000       0.50250000        1 
H       1.57670000      -1.66650000       0.33080000        1 
H       1.47690000      -0.36360000       1.58460000        1 
H       3.56870000       0.92400000       0.41220000        1 
H       3.37160000       1.33340000      -1.33590000        1 
H       3.66850000      -0.37810000      -0.84070000        1 
H      -2.16450000      -1.61910000       0.66730000        1 
H      -0.12310000       0.51200000       1.12760000        1 
H      -1.88180000       1.97930000       1.88580000        1 
H      -3.17100000       0.86910000       1.10880000        1 
