18
Properties=species:S:1:pos:R:3:Z:I:1 pbc="F F F"
O       2.50510000      -0.42330000      -0.84680000        8 
O       1.58660000       0.50000000      -1.05940000        8 
C      -0.92600000      -1.28820000       0.51420000        6 
C       3.24240000       0.01780000       0.26060000        6 
C      -0.64690000       0.11120000      -0.02090000        6 
C      -1.81350000       0.66440000      -0.78710000        6 
C      -2.95290000       1.01280000      -0.18250000        6 
H      -0.01270000      -1.67900000       1.00890000        1 
H      -1.75190000      -1.26490000       1.25640000        1 
H      -1.19670000      -1.96900000      -0.32040000        1 
H       4.03750000      -0.72360000       0.48150000        1 
H       2.58920000       0.10550000       1.15660000        1 
H       3.72770000       0.99510000       0.04380000        1 
H      -0.35700000       0.79860000       0.80290000        1 
H      -1.71290000       0.80570000      -1.85840000        1 
H      -3.77340000       1.42030000      -0.76400000        1 
H      -3.07390000       0.89930000       0.89060000        1 
H       0.52930000       0.01710000      -0.57580000        1 
