20
Properties=species:S:1:pos:R:3:Z:I:1 pbc="F F F"
C      -2.52620000      -0.64080000      -0.51940000        6 
C       1.38610000      -0.39650000      -1.23720000        6 
C      -1.10050000      -0.23380000      -0.16670000        6 
C       1.94530000       0.97150000      -0.98640000        6 
C      -0.73380000      -0.62410000       1.23590000        6 
C       3.02660000       1.16670000      -0.22670000        6 
C      -1.27630000      -0.02430000       2.29950000        6 
H      -2.65720000      -1.73430000      -0.37700000        1 
H      -3.25640000      -0.09430000       0.11430000        1 
H      -2.72340000      -0.39540000      -1.58360000        1 
H       0.08050000      -0.44300000      -0.78140000        1 
H       1.97400000      -1.18570000      -0.72090000        1 
H       1.39440000      -0.60090000      -2.32790000        1 
H      -0.95100000       0.85650000      -0.32230000        1 
H       1.45120000       1.82660000      -1.43710000        1 
H       0.01150000      -1.39910000       1.38260000        1 
H      -2.01070000       0.76670000       2.18130000        1 
H      -0.98100000      -0.32260000       3.30010000        1 
H       3.40190000       2.17230000      -0.06700000        1 
H       3.54490000       0.33450000       0.23990000        1 
