15
Properties=species:S:1:pos:R:3:Z:I:1 pbc="F F F"
O       2.71930000      -1.55300000      -1.39540000        8 
C      -0.38750000       1.65040000       0.49970000        6 
C       0.08890000       0.27010000       0.06150000        6 
C      -0.98790000      -0.76260000       0.22600000        6 
C      -2.05170000      -0.79140000      -0.58020000        6 
C       2.50580000      -0.80140000      -0.45910000        6 
H      -1.23830000       1.98440000      -0.13070000        1 
H      -0.70160000       1.63030000       1.56520000        1 
H       0.44240000       2.37820000       0.38410000        1 
H       0.97510000      -0.01910000       0.66610000        1 
H      -0.88050000      -1.52360000       0.99340000        1 
H      -2.80890000      -1.55810000      -0.45250000        1 
H      -2.17320000      -0.05840000      -1.37200000        1 
H       1.16450000      -0.43430000      -0.12900000        1 
H       3.33350000      -0.41150000       0.12290000        1 
