20
Properties=species:S:1:pos:R:3:Z:I:1 pbc="F F F"
C      -1.60440000      -0.72490000      -2.21170000        6 
C       3.29910000       0.06270000       1.59280000        6 
C      -0.98750000      -0.09640000      -0.97040000        6 
C       2.21180000       0.17390000       0.57040000        6 
C      -2.03900000       0.52850000      -0.10750000        6 
C       0.93140000       0.02760000       0.91060000        6 
C      -2.24220000       0.09360000       1.13630000        6 
H      -2.33610000      -1.50770000      -1.91930000        1 
H      -0.80470000      -1.19600000      -2.82010000        1 
H      -2.11430000       0.04860000      -2.82510000        1 
H       2.88830000      -0.14630000       2.60460000        1 
H       3.86900000       1.01440000       1.62680000        1 
H       3.98710000      -0.76020000       1.30820000        1 
H      -0.24100000       0.67200000      -1.26370000        1 
H       2.47480000       0.37700000      -0.46340000        1 
H      -2.63750000       1.34700000      -0.49680000        1 
H      -3.00510000       0.55480000       1.75500000        1 
H      -1.65320000      -0.72200000       1.54520000        1 
H      -0.14770000       0.14320000      -0.13300000        1 
H       0.15120000       0.11020000       0.16110000        1 
