13
Properties=species:S:1:pos:R:3:Z:I:1 pbc="F F F"
C      -1.50100000      -0.32140000       0.20390000        6 
C      -0.25250000       0.22660000      -0.47260000        6 
C       0.92100000      -0.67350000      -0.24120000        6 
C       1.99690000      -0.23130000       0.41000000        6 
H      -2.34720000       0.37570000       0.03170000        1 
H      -1.33300000      -0.41270000       1.29800000        1 
H      -1.76370000      -1.31630000      -0.21530000        1 
H      -0.42800000       0.33700000      -1.56370000        1 
H       0.89710000      -1.69410000      -0.61220000        1 
H       2.84370000      -0.89070000       0.57050000        1 
H       2.04170000       0.78620000       0.78710000        1 
H      -0.74970000       2.38660000      -0.09420000        1 
H      -0.32540000       1.42780000      -0.10190000        1 
