26
Properties=species:S:1:pos:R:3:Z:I:1 pbc="F F F"
O      -3.79280000       0.22010000      -0.78560000        8 
C      -2.58930000      -0.02210000      -0.10130000        6 
C      -1.76380000       1.27780000      -0.00800000        6 
C      -1.81980000      -1.16290000      -0.78090000        6 
C      -0.56650000       1.15460000       0.93300000        6 
C       1.67700000      -1.31100000      -1.00050000        6 
C       1.54620000      -0.14990000      -0.02500000        6 
C       2.54270000      -0.27560000       1.09350000        6 
C       3.47480000       0.65480000       1.31740000        6 
H      -2.85350000      -0.35050000       0.92770000        1 
H      -1.40440000       1.57810000      -1.01600000        1 
H      -2.42200000       2.08900000       0.37300000        1 
H       0.44330000       0.30170000       0.35780000        1 
H      -0.88150000       0.75160000       1.91900000        1 
H      -0.11670000       2.15770000       1.08980000        1 
H      -0.97340000      -1.49560000      -0.14540000        1 
H      -2.49470000      -2.03230000      -0.93020000        1 
H      -1.43150000      -0.84000000      -1.77040000        1 
H       2.68670000      -1.31290000      -1.46410000        1 
H       0.91440000      -1.20670000      -1.80010000        1 
H       1.50900000      -2.27440000      -0.47410000        1 
H       1.65350000       0.81290000      -0.57140000        1 
H       2.49760000      -1.14670000       1.74030000        1 
H       4.17650000       0.53240000       2.13620000        1 
H       3.54900000       1.53920000       0.69210000        1 
H      -3.56070000       0.51070000      -1.70690000        1 
