26
Properties=species:S:1:pos:R:3:Z:I:1 pbc="F F F"
O       0.14720000       0.05290000      -0.60500000        8 
C       2.47640000      -0.31870000      -0.14550000        6 
C       2.65670000       0.92310000       0.73730000        6 
C       1.05120000      -0.86720000      -0.06650000        6 
C       4.08920000       1.44430000       0.66770000        6 
C      -2.81630000      -1.31490000       0.74090000        6 
C      -2.24900000      -0.65710000      -0.51210000        6 
C      -3.32010000       0.03340000      -1.30520000        6 
C      -3.88270000       1.16510000      -0.87480000        6 
H       2.41730000       0.67070000       1.79330000        1 
H       1.96690000       1.72810000       0.40260000        1 
H       2.71310000      -0.06810000      -1.20290000        1 
H       3.17990000      -1.11270000       0.18840000        1 
H       0.78140000      -1.08270000       0.99010000        1 
H       0.99330000      -1.81390000      -0.64530000        1 
H       4.80000000       0.66850000       1.02410000        1 
H       4.34670000       1.72670000      -0.37540000        1 
H       4.19010000       2.34180000       1.31370000        1 
H      -1.99890000      -1.83190000       1.28520000        1 
H      -3.59330000      -2.06050000       0.46750000        1 
H      -3.25770000      -0.54990000       1.41360000        1 
H      -1.76230000      -1.43180000      -1.14260000        1 
H      -3.61700000      -0.37700000      -2.26590000        1 
H      -3.58800000       1.61190000       0.07000000        1 
H      -4.64320000       1.65530000      -1.47380000        1 
H      -1.08070000      -0.53520000      -0.47920000        1 
