14
Properties=species:S:1:pos:R:3:Z:I:1 pbc="F F F"
O       3.53540000       0.54280000       0.68880000        8 
C       0.23800000      -1.30800000      -0.19010000        6 
C       0.15450000       0.20850000      -0.32270000        6 
C      -1.26800000       0.68680000      -0.29470000        6 
C      -1.98420000       0.67070000       0.83200000        6 
C       2.72410000       0.96860000      -0.11590000        6 
H      -0.31900000      -1.79910000      -1.01660000        1 
H       1.30140000      -1.62190000      -0.23810000        1 
H      -0.18150000      -1.63500000       0.78440000        1 
H       0.63080000       0.51820000      -1.27750000        1 
H      -1.71100000       1.08790000      -1.20150000        1 
H      -3.00550000       1.03750000       0.83130000        1 
H      -1.55930000       0.29860000       1.75940000        1 
H       1.44420000       0.34440000      -0.23880000        1 
