25
Properties=species:S:1:pos:R:3:Z:I:1 pbc="F F F"
C      -0.93210000      -0.04920000       0.32300000        6 
C      -1.50280000       0.45390000      -1.00950000        6 
C      -1.40270000      -1.45930000       0.67220000        6 
C      -2.99900000       0.75600000      -0.93400000        6 
C       2.23850000      -1.40450000      -0.45630000        6 
C       1.69840000      -0.00320000      -0.20200000        6 
C       2.45690000       0.69510000       0.88970000        6 
C       2.08270000       1.90550000       1.30710000        6 
H       0.47670000      -0.07060000       0.21880000        1 
H      -1.20060000       0.64970000       1.14490000        1 
H      -1.31120000      -0.29040000      -1.81230000        1 
H      -0.96940000       1.38910000      -1.28390000        1 
H      -2.49260000      -1.47060000       0.88050000        1 
H      -1.17460000      -2.16000000      -0.15850000        1 
H      -0.87010000      -1.80620000       1.58210000        1 
H      -3.33160000       1.21290000      -1.88970000        1 
H      -3.58020000      -0.17590000      -0.77530000        1 
H      -3.21030000       1.46930000      -0.10910000        1 
H       2.16250000      -2.01620000       0.46750000        1 
H       1.63820000      -1.89000000      -1.25350000        1 
H       3.29920000      -1.35640000      -0.78370000        1 
H       1.74760000       0.59340000      -1.13850000        1 
H       3.31440000       0.21710000       1.35620000        1 
H       2.63420000       2.40160000       2.09920000        1 
H       1.22780000       2.40880000       0.86520000        1 
