25
Properties=species:S:1:pos:R:3:Z:I:1 pbc="F F F"
C      -2.04160000       0.62970000      -0.34770000        6 
C      -0.67590000       1.10340000      -0.85040000        6 
C      -2.08270000       0.64680000       1.18340000        6 
C      -2.34930000      -0.77360000      -0.87920000        6 
C       1.88110000      -1.66210000      -0.80900000        6 
C       1.51860000      -0.28480000      -0.27180000        6 
C       2.02630000      -0.10700000       1.13190000        6 
C       2.89920000       0.85250000       1.45150000        6 
H      -2.81880000       1.32860000      -0.72850000        1 
H       0.36160000       0.22150000      -0.37710000        1 
H      -0.46860000       2.13270000      -0.48720000        1 
H      -0.65900000       1.11770000      -1.96110000        1 
H      -1.89030000       1.67410000       1.56020000        1 
H      -1.31710000      -0.03960000       1.60520000        1 
H      -3.08520000       0.33010000       1.54270000        1 
H      -1.59200000      -1.50430000      -0.52190000        1 
H      -3.35380000      -1.10090000      -0.53560000        1 
H      -2.34910000      -0.77070000      -1.99020000        1 
H       2.98490000      -1.78320000      -0.84520000        1 
H       1.47300000      -1.77540000      -1.83480000        1 
H       1.44250000      -2.45260000      -0.16380000        1 
H       1.90810000       0.49960000      -0.95750000        1 
H       1.66700000      -0.77610000       1.90800000        1 
H       3.27900000       1.54030000       0.70220000        1 
H       3.24220000       0.95330000       2.47610000        1 
