26
Properties=species:S:1:pos:R:3:Z:I:1 pbc="F F F"
O      -3.39410000       0.08340000      -0.34800000        8 
C      -2.01650000      -0.12590000      -0.53740000        6 
C      -1.21090000       0.32260000       0.69500000        6 
C      -1.74100000      -1.59630000      -0.86450000        6 
C      -1.38220000       1.81310000       0.97380000        6 
C       1.86270000      -1.25790000       0.72160000        6 
C       1.43950000       0.14580000       0.30560000        6 
C       2.10760000       0.58200000      -0.96620000        6 
C       3.41530000       0.85070000      -1.01940000        6 
H      -1.69130000       0.47980000      -1.41110000        1 
H       0.16070000       0.06990000       0.46930000        1 
H      -1.52680000      -0.25570000       1.59080000        1 
H      -1.05470000       2.40800000       0.09530000        1 
H      -2.44300000       2.04730000       1.20470000        1 
H      -0.75790000       2.09750000       1.84640000        1 
H      -2.02170000      -2.24720000      -0.00890000        1 
H      -0.66370000      -1.74390000      -1.09180000        1 
H      -2.33240000      -1.90040000      -1.75400000        1 
H       1.29030000      -1.55990000       1.62310000        1 
H       2.94670000      -1.28390000       0.96160000        1 
H       1.64630000      -1.97940000      -0.09450000        1 
H       1.63420000       0.87510000       1.12130000        1 
H       1.50090000       0.70410000      -1.85760000        1 
H       4.04220000       0.75470000      -0.13820000        1 
H       3.86520000       1.17480000      -1.95220000        1 
H      -3.67550000      -0.45840000       0.43550000        1 
