26
Properties=species:S:1:pos:R:3:Z:I:1 pbc="F F F"
O      -2.30170000      -1.59020000       1.42920000        8 
C      -1.77400000       0.51780000       0.36430000        6 
C      -1.81490000      -0.29700000       1.66680000        6 
C      -0.82330000      -0.11850000      -0.65470000        6 
C      -3.17680000       0.68950000      -0.23160000        6 
C       1.66640000       1.08970000      -1.02760000        6 
C       1.74750000      -0.07210000      -0.04460000        6 
C       2.78270000      -1.08140000      -0.44930000        6 
C       4.09000000      -0.81130000      -0.39450000        6 
H      -1.37980000       1.52870000       0.60880000        1 
H      -2.46890000       0.21990000       2.40480000        1 
H      -0.79050000      -0.35540000       2.09860000        1 
H       0.49120000      -0.25160000      -0.07820000        1 
H      -0.74380000       0.52490000      -1.55700000        1 
H      -1.18560000      -1.12270000      -0.96270000        1 
H      -3.60720000      -0.29320000      -0.52070000        1 
H      -3.85020000       1.17330000       0.50770000        1 
H      -3.13130000       1.33730000      -1.13300000        1 
H       0.84230000       1.76810000      -0.72430000        1 
H       2.61740000       1.66330000      -1.03340000        1 
H       1.45610000       0.71050000      -2.05000000        1 
H       1.93980000       0.29550000       0.98650000        1 
H       2.45370000      -2.06420000      -0.77090000        1 
H       4.81300000      -1.56720000      -0.68350000        1 
H       4.44730000       0.15750000      -0.05890000        1 
H      -2.29920000      -2.05110000       2.30800000        1 
