26
Properties=species:S:1:pos:R:3:Z:I:1 pbc="F F F"
O      -1.40480000      -1.84610000      -0.46710000        8 
C      -1.74500000       0.43390000       0.26300000        6 
C      -0.99970000      -0.52300000      -0.68160000        6 
C      -3.25540000       0.41270000      -0.00560000        6 
C      -1.19710000       1.85700000       0.11460000        6 
C       2.09590000      -2.11670000       0.05740000        6 
C       1.50460000      -0.71960000       0.17990000        6 
C       2.43490000       0.30830000      -0.40110000        6 
C       2.94150000       1.30030000       0.33640000        6 
H      -1.56880000       0.10480000       1.31080000        1 
H       0.38090000      -0.41780000      -0.47010000        1 
H      -1.20380000      -0.25200000      -1.74000000        1 
H      -3.47330000       0.72810000      -1.04870000        1 
H      -3.66170000      -0.60870000       0.15310000        1 
H      -3.77790000       1.10050000       0.69310000        1 
H      -1.71550000       2.54260000       0.81850000        1 
H      -0.11210000       1.87740000       0.35230000        1 
H      -1.34470000       2.22860000      -0.92240000        1 
H       3.04840000      -2.18320000       0.62540000        1 
H       1.37880000      -2.85660000       0.47000000        1 
H       2.28270000      -2.36140000      -1.00980000        1 
H       1.26240000      -0.50680000       1.24440000        1 
H       2.69670000       0.24340000      -1.45310000        1 
H       3.60820000       2.02650000      -0.11730000        1 
H       2.70090000       1.39740000       1.39060000        1 
H      -0.87630000      -2.16960000       0.30710000        1 
