9
Properties=species:S:1:pos:R:3:Z:I:1 pbc="F F F"
O       0.62660000       0.54430000      -1.54700000        8 
O       2.94650000      -1.02610000      -0.46200000        8 
C      -0.33890000      -0.00240000       0.56550000        6 
C      -1.59520000       0.26520000       0.21430000        6 
C       0.79070000       0.14960000      -0.36180000        6 
H      -0.13420000      -0.34550000       1.57130000        1 
H      -2.39460000       0.13800000       0.93270000        1 
H      -1.84270000       0.61060000      -0.78160000        1 
H       1.94170000      -0.33370000      -0.13140000        1 
