25
Properties=species:S:1:pos:R:3:Z:I:1 pbc="F F F"
C      -1.26790000      -0.31750000      -0.21340000        6 
C      -1.60150000      -1.36220000      -1.28230000        6 
C      -1.93340000       1.02250000      -0.53960000        6 
C      -1.69050000      -0.80850000       1.17410000        6 
C       2.04010000      -0.33700000      -1.15440000        6 
C       1.36270000      -0.01130000       0.16920000        6 
C       1.86980000       1.29050000       0.72400000        6 
C       2.48250000       1.36280000       1.90890000        6 
H       0.10450000      -0.12880000      -0.20630000        1 
H      -1.08280000      -2.31750000      -1.05490000        1 
H      -2.69670000      -1.54680000      -1.32430000        1 
H      -1.25610000      -1.01110000      -2.27770000        1 
H      -3.03980000       0.91900000      -0.55630000        1 
H      -1.65320000       1.78120000       0.22160000        1 
H      -1.58980000       1.38610000      -1.53110000        1 
H      -1.17220000      -1.76090000       1.41440000        1 
H      -2.78870000      -0.97430000       1.21570000        1 
H      -1.40900000      -0.05950000       1.94430000        1 
H       1.62930000      -1.28790000      -1.55310000        1 
H       1.84640000       0.46980000      -1.89270000        1 
H       3.13560000      -0.45120000      -1.00870000        1 
H       1.50860000      -0.85240000       0.88220000        1 
H       1.72760000       2.19800000       0.14490000        1 
H       2.83350000       2.32050000       2.27960000        1 
H       2.64100000       0.47660000       2.51580000        1 
