20
Properties=species:S:1:pos:R:3:Z:I:1 pbc="F F F"
O      -2.44330000       0.29280000      -0.63340000        8 
C      -1.26200000       0.82610000      -0.10030000        6 
C      -1.14820000       0.48860000       1.38000000        6 
C       2.08810000      -0.46410000      -1.72670000        6 
C       0.71600000      -0.67020000      -1.10130000        6 
C       0.82700000      -0.87850000       0.37690000        6 
C       0.25200000      -0.02750000       1.22690000        6 
H      -0.16930000       0.26760000      -0.77570000        1 
H      -1.23100000       1.93010000      -0.24340000        1 
H      -1.16240000      -0.61300000       1.51800000        1 
H      -1.99290000       0.94040000       1.94190000        1 
H      -0.19320000       0.88900000       1.77940000        1 
H       1.97210000      -0.29290000      -2.81710000        1 
H       2.72430000      -1.36130000      -1.56930000        1 
H       2.58220000       0.42390000      -1.27840000        1 
H       0.21400000      -1.54600000      -1.56450000        1 
H       1.37620000      -1.73400000       0.75950000        1 
H      -0.30330000       0.83280000       0.86480000        1 
H       0.33590000      -0.18850000       2.29670000        1 
H      -3.18210000       0.88480000      -0.33420000        1 
