14
Properties=species:S:1:pos:R:3:Z:I:1 pbc="F F F"
O      -1.68210000      -1.92400000       0.11310000        8 
C      -0.19460000       1.75210000      -0.08420000        6 
C      -0.48540000       0.29810000      -0.43900000        6 
C       0.77310000      -0.51790000      -0.49550000        6 
C       1.44020000      -0.84370000       0.61410000        6 
H       0.48880000       2.20350000      -0.83500000        1 
H      -1.14550000       2.32420000      -0.07510000        1 
H       0.26620000       1.81980000       0.92360000        1 
H      -0.99750000       0.25820000      -1.42420000        1 
H       1.12750000      -0.88090000      -1.45580000        1 
H       2.33850000      -1.44900000       0.54950000        1 
H       1.09560000      -0.51590000       1.59030000        1 
H      -1.01330000      -0.58560000      -0.02880000        1 
H      -2.01150000      -1.93900000       1.04690000        1 
