26
Properties=species:S:1:pos:R:3:Z:I:1 pbc="F F F"
O      -2.78040000       1.18640000       0.88860000        8 
C      -1.76690000       0.43610000       0.26330000        6 
C      -0.54620000       1.34380000       0.07390000        6 
C      -1.37780000      -0.76070000       1.14940000        6 
C      -2.25200000      -0.05690000      -1.11180000        6 
C       1.21850000      -1.20060000      -1.31340000        6 
C       1.65950000       0.05040000      -0.56480000        6 
C       2.67460000      -0.26540000       0.49560000        6 
C       3.12560000       0.69170000       1.30790000        6 
H       0.52260000       0.61790000      -0.56530000        1 
H      -0.18560000       1.71850000       1.05610000        1 
H      -0.80910000       2.22050000      -0.55660000        1 
H      -2.24510000      -1.44160000       1.28730000        1 
H      -0.54840000      -1.33880000       0.68760000        1 
H      -1.05090000      -0.40820000       2.15130000        1 
H      -3.12820000      -0.73060000      -0.99720000        1 
H      -1.44660000      -0.61570000      -1.63580000        1 
H      -2.55690000       0.80430000      -1.74430000        1 
H       0.76900000      -1.92980000      -0.60640000        1 
H       2.08470000      -1.66830000      -1.82860000        1 
H       0.45580000      -0.92510000      -2.07110000        1 
H       2.07850000       0.78870000      -1.28230000        1 
H       3.04620000      -1.27960000       0.61680000        1 
H       3.85650000       0.45420000       2.07410000        1 
H       2.77150000       1.71430000       1.21650000        1 
H      -3.56900000       0.59440000       1.00920000        1 
