13
Properties=species:S:1:pos:R:3:Z:I:1 pbc="F F F"
O      -1.11980000       2.40410000      -1.02710000        8 
C      -0.64420000      -0.76170000       0.27000000        6 
C      -0.82470000       0.69700000       0.69070000        6 
C       0.68880000      -1.09370000      -0.36510000        6 
C       1.68690000      -0.22230000      -0.56550000        6 
H      -1.44680000      -1.02030000      -0.45280000        1 
H      -0.77420000      -1.40700000       1.16480000        1 
H      -0.73350000       1.45640000      -0.31410000        1 
H      -0.06570000       0.97910000       1.45110000        1 
H      -1.83240000       0.82980000       1.13800000        1 
H       0.84170000      -2.12180000      -0.67990000        1 
H       2.60750000      -0.56020000      -1.03030000        1 
H       1.61650000       0.82060000      -0.27970000        1 
