14
Properties=species:S:1:pos:R:3:Z:I:1 pbc="F F F"
O       2.46580000       0.61920000       0.12750000        8 
O       3.16950000       1.69900000      -0.13850000        8 
C      -0.93810000      -0.42700000      -0.70090000        6 
C      -1.09730000       1.06180000      -0.40370000        6 
C      -0.46530000      -1.18200000       0.50910000        6 
C       0.77560000      -1.03880000       0.98040000        6 
H      -1.92330000      -0.83340000      -1.01520000        1 
H      -0.22330000      -0.57110000      -1.54000000        1 
H      -1.48970000       1.57950000      -1.30410000        1 
H      -1.81250000       1.21270000       0.43300000        1 
H      -0.11910000       1.51420000      -0.13590000        1 
H      -1.14080000      -1.87970000       0.99540000        1 
H       1.70190000      -0.15020000       0.34360000        1 
H       1.09660000      -1.60410000       1.84930000        1 
