11
Properties=species:S:1:pos:R:3:Z:I:1 pbc="F F F"
O       2.24000000      -0.62600000       0.21110000        8 
O       3.45820000      -0.28970000      -0.15600000        8 
C      -0.66900000       1.15050000      -0.42950000        6 
C      -0.17190000      -0.13090000       0.16100000        6 
C      -1.00370000      -1.13910000       0.42810000        6 
H      -1.14120000       0.95630000      -1.41570000        1 
H      -1.41050000       1.62000000       0.25100000        1 
H       0.18370000       1.84650000      -0.56890000        1 
H       1.19820000      -0.27420000       0.43950000        1 
H      -2.06690000      -1.05600000       0.22320000        1 
H      -0.61680000      -2.05740000       0.85620000        1 
