14
Properties=species:S:1:pos:R:3:Z:I:1 pbc="F F F"
C       0.36790000       0.57000000      -0.06680000        6 
C       1.50890000      -0.35610000      -0.07770000        6 
C       0.50570000       1.83910000      -0.43590000        6 
C       1.36240000      -1.62390000       0.29300000        6 
C      -2.07610000      -0.35360000       0.31640000        6 
H      -0.84980000       0.13090000       0.32480000        1 
H       2.48660000      -0.00840000      -0.39090000        1 
H      -0.35120000       2.49890000      -0.41820000        1 
H       1.46350000       2.23060000      -0.75620000        1 
H       2.21300000      -2.29300000       0.27920000        1 
H       0.40140000      -2.00810000       0.61210000        1 
H      -2.50590000      -1.14420000      -0.33240000        1 
H      -2.87130000       0.06250000       0.96840000        1 
H      -1.65520000       0.45520000      -0.31570000        1 
