21
Properties=species:S:1:pos:R:3:Z:I:1 pbc="F F F"
C       0.59800000       0.09130000      -0.09810000        6 
C       1.56000000       0.56100000      -1.15430000        6 
C      -1.24850000      -0.59720000       0.65660000        6 
C      -2.22640000       0.40220000       0.20480000        6 
C       1.28070000      -0.04840000       1.25760000        6 
C       2.55120000      -0.21650000      -1.60050000        6 
C      -1.61250000      -1.84660000       0.92570000        6 
C      -1.85330000       1.64950000      -0.06200000        6 
H      -0.22450000       0.83120000      -0.00220000        1 
H       0.15260000      -0.88220000      -0.39540000        1 
H       1.42930000       1.55000000      -1.58360000        1 
H       0.07560000      -0.24040000       0.80730000        1 
H      -3.26780000       0.12660000       0.08490000        1 
H       2.06230000      -0.83690000       1.23220000        1 
H       1.72460000       0.91890000       1.57640000        1 
H      -2.64160000      -2.16750000       0.82030000        1 
H      -0.87130000      -2.56130000       1.25670000        1 
H      -0.82190000       1.96220000       0.04600000        1 
H      -2.58580000       2.37370000      -0.39390000        1 
H       3.22150000       0.14800000      -2.37200000        1 
H       2.69780000      -1.21760000      -1.20650000        1 
