11
Properties=species:S:1:pos:R:3:Z:I:1 pbc="F F F"
O       2.37190000       0.46730000       0.16030000        8 
C      -1.22760000       0.56080000       0.44730000        6 
C      -0.83260000      -0.70530000      -0.24550000        6 
C       0.42180000      -0.90070000      -0.65580000        6 
H      -2.30680000       0.52530000       0.70500000        1 
H      -0.63920000       0.68160000       1.38140000        1 
H      -1.04600000       1.43040000      -0.21910000        1 
H      -1.57820000      -1.47610000      -0.41660000        1 
H       1.29140000      -0.03430000      -0.47150000        1 
H       0.69290000      -1.82430000      -1.15680000        1 
H       2.85240000       1.27540000       0.47120000        1 
