12
Properties=species:S:1:pos:R:3:Z:I:1 pbc="F F F"
O       1.74410000      -1.27110000      -0.41320000        8 
O       3.00330000      -1.64710000      -0.34200000        8 
C       0.18190000       0.57650000       0.08360000        6 
C      -1.19080000       0.05230000       0.07740000        6 
C       0.42630000       1.86980000       0.26600000        6 
C      -1.42460000      -1.24290000      -0.10580000        6 
H       1.27460000      -0.30900000      -0.10840000        1 
H      -2.02880000       0.72400000       0.22350000        1 
H       1.44710000       2.22710000       0.26570000        1 
H      -0.37880000       2.57860000       0.41600000        1 
H      -2.44140000      -1.61370000      -0.10780000        1 
H      -0.61290000      -1.94430000      -0.25500000        1 
