20
Properties=species:S:1:pos:R:3:Z:I:1 pbc="F F F"
O      -0.80710000      -1.36670000      -0.32470000        8 
O       1.85830000       1.57010000       1.40020000        8 
O       0.32100000      -0.68200000      -0.29120000        8 
C      -2.30270000       0.44880000       0.27700000        6 
C      -1.61500000      -0.85330000       0.70610000        6 
C      -3.23250000       0.23590000      -0.91560000        6 
C       3.63140000       0.57430000       0.20030000        6 
C       4.04770000      -0.38760000      -0.61650000        6 
C       2.23190000       0.65090000       0.62600000        6 
H      -2.89810000       0.83900000       1.13060000        1 
H      -1.53770000       1.21190000       0.01710000        1 
H      -1.02550000      -0.68210000       1.63690000        1 
H      -2.39000000      -1.60910000       0.95580000        1 
H      -2.65680000      -0.11010000      -1.80010000        1 
H      -4.01280000      -0.51500000      -0.66800000        1 
H      -3.73140000       1.19410000      -1.17240000        1 
H       4.33840000       1.31340000       0.55700000        1 
H       3.36510000      -1.14100000      -0.99010000        1 
H       5.08590000      -0.42740000      -0.91980000        1 
H       1.33000000      -0.26430000       0.19140000        1 
