11
Properties=species:S:1:pos:R:3:Z:I:1 pbc="F F F"
C      -0.53880000      -0.08850000       0.19530000        6 
C       0.67540000      -0.21670000      -0.62260000        6 
C      -1.68500000      -0.64720000      -0.17870000        6 
C       1.81750000       0.34530000      -0.24090000        6 
H      -0.49740000       0.62020000       1.36980000        1 
H       0.64740000      -0.77550000      -1.55100000        1 
H      -2.56320000      -0.53660000       0.44290000        1 
H      -1.76030000      -1.21460000      -1.09830000        1 
H       2.70280000       0.24150000      -0.85460000        1 
H       1.88430000       0.91120000       0.68020000        1 
H      -0.68280000       1.36100000       1.85790000        1 
