11
Properties=species:S:1:pos:R:3:Z:I:1 pbc="F F F"
O      -0.32120000       2.78300000      -1.33120000        8 
C      -0.13830000       0.42340000      -0.49520000        6 
C       0.16310000       0.24780000       0.94250000        6 
C      -0.25560000      -0.56770000      -1.37950000        6 
C       0.35770000      -0.92630000       1.54550000        6 
H      -0.30190000       1.65310000      -0.92750000        1 
H       0.22900000       1.14550000       1.54390000        1 
H      -0.13750000      -1.60730000      -1.11330000        1 
H      -0.47880000      -0.33170000      -2.41130000        1 
H       0.30990000      -1.86830000       1.02020000        1 
H       0.57350000      -0.95170000       2.60580000        1 
