13
Properties=species:S:1:pos:R:3:Z:I:1 pbc="F F F"
O       0.98200000      -0.07470000      -0.88450000        8 
O      -2.35050000       0.33990000      -0.77190000        8 
C       1.69630000      -0.69800000      -1.90630000        6 
C      -1.48350000       0.54630000       1.41480000        6 
C      -0.43610000       0.48620000       2.23090000        6 
C      -1.34410000       0.27680000      -0.01900000        6 
H       0.98800000      -1.16760000      -2.61940000        1 
H       2.31280000       0.05480000      -2.43910000        1 
H       2.35660000      -1.47750000      -1.47360000        1 
H      -2.45710000       0.79900000       1.81660000        1 
H       0.55050000       0.23640000       1.86020000        1 
H      -0.56120000       0.68890000       3.28660000        1 
H      -0.25380000      -0.01050000      -0.49530000        1 
