13
Properties=species:S:1:pos:R:3:Z:I:1 pbc="F F F"
C      -0.52510000      -0.57330000       0.45040000        6 
C      -1.61140000       0.06200000      -0.40840000        6 
C       0.78250000       0.14090000       0.25120000        6 
C       1.86760000      -0.48210000      -0.21510000        6 
H      -0.81280000      -0.49650000       1.52020000        1 
H      -0.44150000      -1.65170000       0.19130000        1 
H      -1.74410000       1.13110000      -0.13610000        1 
H      -1.34360000      -0.01240000      -1.48420000        1 
H      -2.57310000      -0.46810000      -0.24370000        1 
H       0.86140000       1.46140000       0.55910000        1 
H       2.79160000       0.07130000      -0.34250000        1 
H       1.84590000      -1.53660000      -0.47250000        1 
H       0.90260000       2.35400000       0.33020000        1 
