13
Properties=species:S:1:pos:R:3:Z:I:1 pbc="F F F"
C       0.20300000       0.16640000      -0.80720000        6 
C       1.18330000      -0.54100000       0.07960000        6 
C       2.32820000       0.02860000       0.46600000        6 
C      -2.24540000       0.07690000       0.29250000        6 
H      -0.88700000       0.26220000      -0.21620000        1 
H       0.05840000      -0.42330000      -1.73610000        1 
H       0.55220000       1.18520000      -1.08110000        1 
H       0.95020000      -1.54650000       0.41620000        1 
H       2.59300000       1.03260000       0.14880000        1 
H       3.01320000      -0.51460000       1.10910000        1 
H      -2.20790000       0.66750000       1.23090000        1 
H      -2.59430000      -0.95210000       0.51700000        1 
H      -2.94690000       0.55810000      -0.41950000        1 
