13
Properties=species:S:1:pos:R:3:Z:I:1 pbc="F F F"
C      -1.43620000      -0.69850000      -0.65290000        6 
C      -0.52430000       0.23370000       0.08600000        6 
C      -0.94480000       1.40750000       0.56360000        6 
C       2.07550000      -0.35710000       0.18240000        6 
H      -1.03170000      -0.87210000      -1.67130000        1 
H      -1.48120000      -1.66710000      -0.11350000        1 
H      -2.46540000      -0.28870000      -0.74070000        1 
H       0.75130000      -0.12610000       0.27040000        1 
H      -1.97210000       1.73410000       0.43380000        1 
H      -0.25130000       2.05210000       1.09260000        1 
H       2.16940000      -1.26020000      -0.45510000        1 
H       2.72980000       0.44580000      -0.21520000        1 
H       2.38120000      -0.60350000       1.22000000        1 
