20
Properties=species:S:1:pos:R:3:Z:I:1 pbc="F F F"
C      -1.82140000       0.77950000      -0.82250000        6 
C      -2.36990000       1.29280000       0.50250000        6 
C       1.60120000      -0.04090000      -0.29340000        6 
C       2.23940000       0.04660000       1.06040000        6 
C       3.29060000      -0.70550000       1.39800000        6 
C      -1.26750000      -1.62490000      -1.15750000        6 
C      -0.98440000      -0.44720000      -0.59730000        6 
H      -2.66890000       0.56980000      -1.51170000        1 
H      -1.18510000       1.56410000      -1.28350000        1 
H      -1.53730000       1.54440000       1.19420000        1 
H      -3.01940000       0.52410000       0.97370000        1 
H      -2.97340000       2.20800000       0.32560000        1 
H       0.41350000      -0.36490000      -0.16280000        1 
H       2.10650000      -0.78830000      -0.94230000        1 
H       1.65150000       0.95210000      -0.78640000        1 
H       1.83030000       0.74350000       1.78540000        1 
H       3.72570000      -0.61480000       2.38800000        1 
H       3.72490000      -1.41310000       0.69830000        1 
H      -0.62850000      -2.47830000      -0.96010000        1 
H      -2.12780000      -1.74730000      -1.80840000        1 
