24
Properties=species:S:1:pos:R:3:Z:I:1 pbc="F F F"
O      -1.35340000       1.00840000      -1.04570000        8 
O      -0.38290000       0.33610000      -0.45240000        8 
C      -2.58060000       0.49530000      -0.57060000        6 
C       1.85980000      -0.65140000       0.29830000        6 
C      -2.76810000      -0.97980000      -0.95200000        6 
C      -2.74660000       0.71980000       0.93900000        6 
C       2.28490000      -0.09660000       1.65440000        6 
C       2.92980000      -0.45240000      -0.73840000        6 
C       3.23320000       0.76010000      -1.21010000        6 
H      -3.38940000       1.06710000      -1.07540000        1 
H       0.77300000      -0.07780000      -0.08370000        1 
H       1.65880000      -1.73900000       0.40490000        1 
H       2.43870000       1.00150000       1.59450000        1 
H       3.22520000      -0.58250000       1.99240000        1 
H       1.48970000      -0.30000000       2.40170000        1 
H      -3.79610000      -1.31150000      -0.69270000        1 
H      -2.62300000      -1.10690000      -2.04570000        1 
H      -2.04170000      -1.62630000      -0.41500000        1 
H      -2.58630000       1.79220000       1.17950000        1 
H      -2.01970000       0.10900000       1.51560000        1 
H      -3.77400000       0.43840000       1.25420000        1 
H       3.44940000      -1.32010000      -1.13410000        1 
H       4.00180000       0.87090000      -1.96810000        1 
H       2.71770000       1.64550000      -0.85070000        1 
