24
Properties=species:S:1:pos:R:3:Z:I:1 pbc="F F F"
O       0.91350000      -0.61740000       0.80740000        8 
O       0.20360000      -0.85290000      -0.28030000        8 
C       3.01890000      -0.10510000      -0.28790000        6 
C      -2.33250000      -0.53190000      -0.17560000        6 
C       2.20870000      -1.10210000       0.55000000        6 
C       3.20750000       1.22640000       0.43590000        6 
C      -2.81430000      -1.01090000      -1.54030000        6 
C      -2.74540000       0.89010000       0.08320000        6 
C      -2.40570000       1.50320000       1.21890000        6 
H       4.01830000      -0.54260000      -0.50000000        1 
H       2.51030000       0.07210000      -1.26000000        1 
H      -1.04900000      -0.61590000      -0.13360000        1 
H      -2.75870000      -1.19020000       0.61220000        1 
H       2.17730000      -2.09150000       0.03680000        1 
H       2.72350000      -1.26450000       1.52100000        1 
H      -2.37970000      -0.37900000      -2.34390000        1 
H      -2.48970000      -2.06050000      -1.69930000        1 
H      -3.92320000      -0.96780000      -1.59530000        1 
H       2.22530000       1.71100000       0.62010000        1 
H       3.72740000       1.06910000       1.40490000        1 
H       3.82350000       1.90500000      -0.19090000        1 
H      -3.32520000       1.43650000      -0.65630000        1 
H      -1.82570000       0.98840000       1.97920000        1 
H      -2.70870000       2.53050000       1.39360000        1 
