14
Properties=species:S:1:pos:R:3:Z:I:1 pbc="F F F"
O       3.55080000       0.10890000      -0.29580000        8 
C      -1.14640000       0.29760000       0.34030000        6 
C      -2.01920000      -0.94920000       0.23830000        6 
C       0.26610000       0.01300000      -0.09110000        6 
C       1.19330000       0.97270000      -0.07730000        6 
H      -1.14610000       0.65450000       1.39300000        1 
H      -1.57610000       1.09430000      -0.30490000        1 
H      -3.05300000      -0.70680000       0.56290000        1 
H      -2.05190000      -1.31180000      -0.81140000        1 
H      -1.62030000      -1.75340000       0.89310000        1 
H       0.54950000      -0.98280000      -0.42080000        1 
H       2.35360000       0.71750000      -0.43720000        1 
H       0.94960000       1.98050000       0.24550000        1 
H       3.75030000      -0.13500000      -1.23460000        1 
