18
Properties=species:S:1:pos:R:3:Z:I:1 pbc="F F F"
O       2.66850000       0.04350000       0.97260000        8 
O       1.39070000      -0.12140000       0.69030000        8 
C      -1.87400000      -0.85040000       0.23990000        6 
C      -0.56110000      -1.58920000       0.02050000        6 
C       3.22770000       0.66860000      -0.14940000        6 
C      -1.89360000       0.42430000      -0.55720000        6 
C      -2.00270000       1.62200000       0.02510000        6 
H      -2.71760000      -1.49340000      -0.08950000        1 
H      -1.99600000      -0.64930000       1.32680000        1 
H       0.48680000      -0.80120000       0.41340000        1 
H      -0.44020000      -1.85460000      -1.05170000        1 
H      -0.55290000      -2.52280000       0.62170000        1 
H       2.74960000       1.65750000      -0.32590000        1 
H       3.12040000       0.02510000      -1.05050000        1 
H       4.30960000       0.83350000       0.03280000        1 
H      -1.82140000       0.36800000      -1.63960000        1 
H      -2.07830000       1.71900000       1.10380000        1 
H      -2.01560000       2.52060000      -0.58310000        1 
