21
Properties=species:S:1:pos:R:3:Z:I:1 pbc="F F F"
O       2.20810000      -0.68680000       0.53760000        8 
O       1.11340000       0.04480000       0.44160000        8 
C      -2.34680000      -0.01730000       1.06180000        6 
C       2.95680000      -0.43580000      -0.62530000        6 
C      -1.17680000       0.89860000       0.73050000        6 
C       3.74700000       0.86150000      -0.48650000        6 
C      -2.58060000      -0.99010000      -0.06040000        6 
C      -3.73360000      -1.02930000      -0.73450000        6 
H      -3.24960000       0.60240000       1.25710000        1 
H      -2.11240000      -0.58740000       1.98540000        1 
H       3.67380000      -1.27200000      -0.76580000        1 
H       2.31090000      -0.40030000      -1.53340000        1 
H      -0.04520000       0.15670000       0.52460000        1 
H      -0.99790000       1.59630000       1.57570000        1 
H      -1.39880000       1.49230000      -0.18210000        1 
H       4.37740000       1.01330000      -1.38790000        1 
H       3.05550000       1.72440000      -0.38520000        1 
H       4.40380000       0.81270000       0.40780000        1 
H      -1.78910000      -1.68470000      -0.32700000        1 
H      -4.54830000      -0.35230000      -0.49660000        1 
H      -3.86740000      -1.74690000      -1.53750000        1 
