14
Properties=species:S:1:pos:R:3:Z:I:1 pbc="F F F"
O       2.82670000      -0.74960000       0.54850000        8 
C      -0.62030000      -0.53680000      -0.51650000        6 
C       0.82600000      -0.23130000      -0.88530000        6 
C      -1.01310000       0.20960000       0.72880000        6 
C      -2.00460000       1.10520000       0.73430000        6 
H      -1.27690000      -0.26870000      -1.37340000        1 
H      -0.72720000      -1.62620000      -0.32880000        1 
H       1.54600000      -0.54960000      -0.01020000        1 
H       1.10500000      -0.79770000      -1.79880000        1 
H       0.95030000       0.85420000      -1.08710000        1 
H      -0.47640000       0.01010000       1.65190000        1 
H      -2.26150000       1.62310000       1.65260000        1 
H      -2.56470000       1.33070000      -0.16800000        1 
H       3.69080000      -0.37310000       0.85210000        1 
