14
Properties=species:S:1:pos:R:3:Z:I:1 pbc="F F F"
C      -1.03550000      -0.37960000      -0.58610000        6 
C      -1.71250000      -0.48030000       0.74500000        6 
C      -1.07560000      -0.98080000       1.80570000        6 
C       2.32930000       1.29330000      -1.26990000        6 
C       1.39520000       0.61930000      -0.60530000        6 
H      -0.05300000       0.32270000      -0.49590000        1 
H      -0.73660000      -1.39000000      -0.93690000        1 
H      -1.73060000       0.06720000      -1.32720000        1 
H      -2.73820000      -0.13890000       0.84900000        1 
H      -0.04950000      -1.32810000       1.72790000        1 
H      -1.58240000      -1.04520000       2.76300000        1 
H       3.27520000       1.53290000      -0.79510000        1 
H       2.14560000       1.60560000      -2.29200000        1 
H       1.56850000       0.30190000       0.41790000        1 
