18
Properties=species:S:1:pos:R:3:Z:I:1 pbc="F F F"
O       2.52600000      -0.44210000      -0.61910000        8 
O       1.42680000      -1.09440000      -0.29340000        8 
C      -0.77800000       0.12920000      -0.45400000        6 
C      -1.51900000      -0.30330000      -1.71260000        6 
C       3.24490000      -0.29020000       0.57350000        6 
C      -1.68640000       0.05870000       0.74260000        6 
C      -1.98330000       1.13880000       1.47070000        6 
H       0.22040000      -0.65990000      -0.26190000        1 
H      -0.38180000       1.15790000      -0.60190000        1 
H      -2.38240000       0.36990000      -1.90180000        1 
H      -0.83060000      -0.25460000      -2.58220000        1 
H      -1.88230000      -1.34770000      -1.60590000        1 
H       4.18640000       0.25600000       0.35860000        1 
H       3.50800000      -1.28270000       1.00160000        1 
H       2.65940000       0.30190000       1.31120000        1 
H      -2.10820000      -0.90150000       1.02480000        1 
H      -2.64060000       1.04910000       2.32940000        1 
H      -1.57950000       2.11510000       1.22040000        1 
