13
Properties=species:S:1:pos:R:3:Z:I:1 pbc="F F F"
O       3.10300000      -1.02110000       0.05480000        8 
C      -0.51210000      -0.35720000      -0.54260000        6 
C      -1.68010000      -0.52920000       0.42130000        6 
C       0.24620000       0.90260000      -0.23020000        6 
C       1.53430000       0.88020000       0.12110000        6 
H      -0.90120000      -0.29180000      -1.58090000        1 
H       0.14500000      -1.25210000      -0.47770000        1 
H      -2.23400000      -1.45880000       0.17230000        1 
H      -2.37770000       0.33190000       0.34150000        1 
H      -1.30840000      -0.60520000       1.46570000        1 
H      -0.26790000       1.85720000      -0.29670000        1 
H       2.19940000      -0.26440000       0.21310000        1 
H       2.05350000       1.80800000       0.33820000        1 
