14
Properties=species:S:1:pos:R:3:Z:I:1 pbc="F F F"
C      -1.48790000      -1.11960000       0.32130000        6 
C      -0.87890000       0.21620000       0.01910000        6 
C      -1.60460000       1.33670000      -0.00960000        6 
C       2.70740000       0.06720000       0.13300000        6 
C       1.69770000       0.30150000      -0.70010000        6 
H      -0.99890000      -1.54770000       1.22050000        1 
H      -1.31870000      -1.79990000      -0.53870000        1 
H      -2.58060000      -1.04410000       0.50910000        1 
H       0.40230000       0.28130000      -0.22320000        1 
H      -1.12400000       2.28310000      -0.23270000        1 
H      -2.67240000       1.32240000       0.18650000        1 
H       3.46320000      -0.67110000      -0.11480000        1 
H       2.77680000       0.61650000       1.06540000        1 
H       1.61860000      -0.24240000      -1.63580000        1 
