11
Properties=species:S:1:pos:R:3:Z:I:1 pbc="F F F"
O       1.71030000       0.42020000       1.02150000        8 
O       2.89670000       0.70740000       1.51320000        8 
C       0.10630000      -1.05380000      -0.17170000        6 
C      -1.07060000      -0.13400000      -0.08370000        6 
C      -1.02020000       1.09800000      -0.59390000        6 
H       1.13770000      -0.51280000       0.43000000        1 
H       0.35850000      -1.24620000      -1.23600000        1 
H      -0.13400000      -2.01880000       0.32140000        1 
H      -1.97850000      -0.47390000       0.40570000        1 
H      -1.88280000       1.75230000      -0.51980000        1 
H      -0.12340000       1.46170000      -1.08670000        1 
