20
Properties=species:S:1:pos:R:3:Z:I:1 pbc="F F F"
C      -1.93790000      -0.53990000      -0.02650000        6 
C      -1.08950000      -1.35650000       0.94030000        6 
C       2.87000000      -0.63840000      -0.24900000        6 
C      -1.31560000       0.80890000      -0.25730000        6 
C       1.88520000       0.46140000      -0.00000000        6 
C      -1.94980000       1.94420000       0.04620000        6 
C       1.23250000       1.04580000      -1.00550000        6 
H      -2.96740000      -0.44620000       0.38410000        1 
H      -2.00130000      -1.07360000      -0.99830000        1 
H      -1.02120000      -0.84070000       1.92200000        1 
H      -1.55530000      -2.35280000       1.09370000        1 
H      -0.06710000      -1.50210000       0.53000000        1 
H       2.36520000      -1.49440000      -0.74480000        1 
H       3.29740000      -0.98340000       0.71560000        1 
H       3.69420000      -0.27020000      -0.89590000        1 
H      -0.11830000       0.87020000      -0.77430000        1 
H       1.69580000       0.79230000       1.01590000        1 
H      -2.94630000       1.93580000       0.47710000        1 
H      -1.46500000       2.89690000      -0.13780000        1 
H       1.39440000       0.74290000      -2.03580000        1 
