10
Properties=species:S:1:pos:R:3:Z:I:1 pbc="F F F"
O       0.61280000      -1.98830000      -1.02030000        8 
O       2.01570000       0.90770000      -0.73350000        8 
O       2.62740000       2.07290000      -0.73970000        8 
C      -0.91350000      -0.77730000       0.31360000        6 
C      -1.28120000       0.38380000       0.84500000        6 
C       0.28200000      -0.87890000      -0.52660000        6 
H      -1.50750000      -1.66260000       0.50490000        1 
H      -0.70810000       1.28660000       0.67230000        1 
H      -2.16780000       0.43880000       1.46320000        1 
H       1.04020000       0.21730000      -0.77900000        1 
