14
Properties=species:S:1:pos:R:3:Z:I:1 pbc="F F F"
O       2.14650000      -0.22770000      -1.05480000        8 
O       3.45910000      -0.32100000      -1.04280000        8 
C       0.10170000       0.28460000       0.29490000        6 
C      -0.19760000       1.64820000      -0.31740000        6 
C      -1.09770000      -0.61940000       0.23200000        6 
C      -1.03690000      -1.86710000       0.70170000        6 
H       1.07590000      -0.25670000      -0.34860000        1 
H       0.40690000       0.42100000       1.35500000        1 
H      -1.02320000       2.14660000       0.23440000        1 
H       0.70830000       2.28710000      -0.25740000        1 
H      -0.48230000       1.53500000      -1.38520000        1 
H      -2.02980000      -0.26530000      -0.20090000        1 
H      -0.12170000      -2.25470000       1.13960000        1 
H      -1.90920000      -2.51060000       0.64950000        1 
