13
Properties=species:S:1:pos:R:3:Z:I:1 pbc="F F F"
O      -1.38170000      -1.31980000       0.96990000        8 
C      -1.44180000       0.50240000      -0.56490000        6 
C      -2.76790000       0.53390000      -0.68260000        6 
C      -0.74660000      -0.46540000       0.29580000        6 
C       2.81650000       0.20020000       0.34910000        6 
C       1.90830000      -0.75450000       0.52910000        6 
H      -0.84710000       1.21460000      -1.12240000        1 
H      -3.40040000      -0.15990000      -0.14320000        1 
H      -3.23450000       1.26550000      -1.32930000        1 
H       0.50810000      -0.43860000       0.35960000        1 
H       3.87320000      -0.02000000       0.46050000        1 
H       2.50020000       1.20440000       0.08950000        1 
H       2.21370000      -1.76280000       0.78900000        1 
