18
Properties=species:S:1:pos:R:3:Z:I:1 pbc="F F F"
C      -0.40400000      -1.57280000       0.69090000        6 
C      -1.06500000      -1.27900000      -0.61900000        6 
C       1.00400000       0.55390000      -0.26140000        6 
C      -2.37370000      -1.47380000      -0.78580000        6 
C       1.76910000       1.36890000      -0.98910000        6 
C       0.75640000       1.96470000       1.79300000        6 
C       0.51280000       0.85370000       1.09960000        6 
H       0.11060000      -0.55170000       1.11980000        1 
H      -1.13290000      -1.95030000       1.44080000        1 
H       0.38470000      -2.33880000       0.54000000        1 
H      -0.46290000      -0.90090000      -1.44050000        1 
H       0.71710000      -0.39760000      -0.69010000        1 
H      -2.84530000      -1.25780000      -1.73890000        1 
H      -2.84530000      -1.25780000      -1.73890000        1 
H       2.09660000       2.33380000      -0.63130000        1 
H       2.08200000       1.06430000      -1.97950000        1 
H       1.35720000       2.77410000       1.40550000        1 
H       0.33860000       2.06720000       2.78510000        1 
