14
Properties=species:S:1:pos:R:3:Z:I:1 pbc="F F F"
O       1.66360000      -0.13220000      -0.27220000        8 
C      -0.71900000      -0.88360000      -0.45920000        6 
C       2.85420000       0.46270000       0.14190000        6 
C      -1.73980000       0.21040000      -0.36330000        6 
C      -2.59070000       0.29750000       0.66280000        6 
H       0.35790000      -0.40660000      -0.49760000        1 
H      -0.88980000      -1.46260000      -1.39040000        1 
H      -0.77220000      -1.57690000       0.40770000        1 
H       2.62700000       1.31810000       0.81080000        1 
H       3.41440000       0.82490000      -0.74440000        1 
H       3.46870000      -0.28150000       0.68910000        1 
H      -1.78440000       0.95270000      -1.15450000        1 
H      -3.31590000       1.10400000       0.69800000        1 
H      -2.57410000      -0.42700000       1.47130000        1 
