10
Properties=species:S:1:pos:R:3:Z:I:1 pbc="F F F"
O       1.93160000       1.53270000      -1.35770000        8 
C      -1.22730000       0.28450000       0.32500000        6 
C      -0.11240000      -0.71570000       0.37190000        6 
C       1.07100000      -0.47850000      -0.19880000        6 
H      -2.10560000      -0.17050000      -0.17800000        1 
H      -0.93650000       1.20410000      -0.22670000        1 
H      -1.51090000       0.56460000       1.36060000        1 
H      -0.27600000      -1.65830000       0.88550000        1 
H       1.30840000       0.66140000      -0.83520000        1 
H       1.85760000      -1.22430000      -0.14650000        1 
