23
Properties=species:S:1:pos:R:3:Z:I:1 pbc="F F F"
O      -0.32550000       0.68690000       0.76320000        8 
O       2.52020000      -2.77960000       0.36320000        8 
O       0.68730000      -0.06960000       1.14440000        8 
C      -1.08580000      -0.08160000      -0.14070000        6 
C      -1.92440000       0.85320000      -1.03350000        6 
C      -1.96280000      -1.08800000       0.61800000        6 
C      -2.86960000       1.76800000      -0.25080000        6 
C       3.88670000      -0.89830000      -0.04750000        6 
C       4.02150000       0.42360000      -0.05940000        6 
C       2.62700000      -1.52560000       0.35900000        6 
H      -0.41690000      -0.65360000      -0.82780000        1 
H      -2.51780000       0.24950000      -1.75450000        1 
H      -1.23230000       1.48970000      -1.62690000        1 
H      -2.30940000       2.36390000       0.50010000        1 
H      -3.65810000       1.17610000       0.25830000        1 
H      -3.36670000       2.46960000      -0.95340000        1 
H      -2.64830000      -1.61120000      -0.08220000        1 
H      -1.32220000      -1.85090000       1.10880000        1 
H      -2.55890000      -0.57890000       1.40410000        1 
H       4.72170000      -1.52170000      -0.34330000        1 
H       4.96030000       0.86850000      -0.36290000        1 
H       3.20520000       1.07360000       0.23080000        1 
H       1.56880000      -0.76390000       0.73310000        1 
