14
Properties=species:S:1:pos:R:3:Z:I:1 pbc="F F F"
O       2.21680000      -0.64350000       0.82490000        8 
O      -1.67870000      -2.30350000      -0.91080000        8 
O       0.96030000      -0.64980000       0.42380000        8 
C       2.85290000       0.34690000       0.06560000        6 
C      -2.41520000      -0.16180000      -0.24310000        6 
C      -2.12340000       1.02660000       0.27480000        6 
C      -1.38110000      -1.18420000      -0.41830000        6 
H       2.80410000       0.10130000      -1.01830000        1 
H       3.92070000       0.39730000       0.36250000        1 
H       2.39180000       1.34160000       0.25400000        1 
H      -3.43420000      -0.37770000      -0.54040000        1 
H      -1.11410000       1.27260000       0.58160000        1 
H      -2.90130000       1.76910000       0.39630000        1 
H      -0.09880000      -0.93490000      -0.05270000        1 
