10
Properties=species:S:1:pos:R:3:Z:I:1 pbc="F F F"
O       2.20600000      -1.26990000      -1.06520000        8 
C       0.59660000       0.53450000      -0.51220000        6 
C      -0.33890000       0.37770000       0.64560000        6 
C      -1.32780000      -0.51810000       0.61590000        6 
H       1.17210000      -0.50410000      -0.71720000        1 
H       1.34530000       1.32200000      -0.28500000        1 
H       0.02970000       0.82860000      -1.42070000        1 
H      -0.20930000       1.00240000       1.52450000        1 
H      -1.47790000      -1.15500000      -0.25080000        1 
H      -1.99590000      -0.61800000       1.46520000        1 
