12
Properties=species:S:1:pos:R:3:Z:I:1 pbc="F F F"
O       2.61940000      -1.00060000      -0.16730000        8 
C       0.29960000       0.00690000       0.27150000        6 
C      -0.73680000      -0.38330000      -0.70980000        6 
C       0.13050000       0.89720000       1.25000000        6 
C      -1.97840000       0.10400000      -0.74580000        6 
H       1.39740000      -0.53430000       0.17170000        1 
H      -0.45890000      -1.12100000      -1.45190000        1 
H      -0.80000000       1.42030000       1.41140000        1 
H       0.95390000       1.11350000       1.91770000        1 
H      -2.33750000       0.84170000      -0.04400000        1 
H      -2.66630000      -0.24530000      -1.50490000        1 
H       3.57720000      -1.09890000      -0.39870000        1 
