14
Properties=species:S:1:pos:R:3:Z:I:1 pbc="F F F"
O      -0.96840000       2.10320000      -1.02940000        8 
C      -0.34490000       0.04990000       0.34860000        6 
C      -1.21690000      -1.08150000      -0.18250000        6 
C       1.03960000      -0.45230000       0.65490000        6 
C       2.12100000       0.03190000       0.03740000        6 
H      -0.32070000       0.87060000      -0.40180000        1 
H      -0.79410000       0.45110000       1.28190000        1 
H      -1.29510000      -1.89560000       0.56970000        1 
H      -2.23640000      -0.69660000      -0.39610000        1 
H      -0.78650000      -1.48980000      -1.12200000        1 
H       1.16260000      -1.22910000       1.40410000        1 
H       2.03850000       0.80920000      -0.71610000        1 
H       3.10460000      -0.35350000       0.28590000        1 
H      -1.50340000       2.88250000      -0.73450000        1 
