23
Properties=species:S:1:pos:R:3:Z:I:1 pbc="F F F"
O      -0.04690000      -1.14220000      -0.92490000        8 
O       4.17780000      -1.93710000       0.85200000        8 
O       0.92150000      -1.60340000      -0.15680000        8 
C      -2.22360000      -0.15120000      -0.86860000        6 
C      -3.42930000       0.23140000       0.00370000        6 
C      -1.05050000      -0.69800000      -0.05100000        6 
C      -3.17450000       1.47810000       0.85030000        6 
C       3.82730000       0.13760000      -0.26700000        6 
C       5.08350000       0.56460000      -0.15330000        6 
C       3.38170000      -1.15980000       0.26060000        6 
H      -3.70890000      -0.61750000       0.66490000        1 
H      -4.29420000       0.43530000      -0.66410000        1 
H      -1.88960000       0.72800000      -1.46200000        1 
H      -2.54950000      -0.93610000      -1.58570000        1 
H      -1.40600000      -1.54490000       0.57960000        1 
H      -0.64730000       0.10680000       0.60330000        1 
H      -4.11300000       1.77120000       1.36640000        1 
H      -2.40410000       1.27790000       1.62330000        1 
H      -2.84570000       2.32330000       0.20900000        1 
H       3.10090000       0.76580000      -0.76630000        1 
H       5.36410000       1.52820000      -0.55820000        1 
H       5.84150000      -0.03200000       0.33860000        1 
H       2.08470000      -1.52610000       0.10630000        1 
