21
Properties=species:S:1:pos:R:3:Z:I:1 pbc="F F F"
O      -1.11200000      -0.03940000      -0.64680000        8 
O       0.16660000       0.13700000      -0.37460000        8 
C      -3.20410000      -0.67790000       0.34820000        6 
C      -1.70670000      -0.44740000       0.55740000        6 
C      -3.93610000       0.61600000      -0.00190000        6 
C       2.62620000       0.59020000       0.11080000        6 
C       3.54370000      -0.25920000      -0.71140000        6 
C       4.86740000      -0.20430000      -0.54890000        6 
H      -3.35610000      -1.42000000      -0.46550000        1 
H      -3.63960000      -1.09540000       1.28170000        1 
H      -1.24960000      -1.40340000       0.89990000        1 
H      -1.55790000       0.32420000       1.34730000        1 
H      -3.80670000       1.36450000       0.80860000        1 
H      -5.02020000       0.40770000      -0.12200000        1 
H      -3.54990000       1.03590000      -0.95480000        1 
H       1.38380000       0.35510000      -0.23520000        1 
H       2.75120000       0.35130000       1.18810000        1 
H       2.84980000       1.66470000      -0.05870000        1 
H       3.12230000      -0.93110000      -1.45270000        1 
H       5.51550000      -0.82870000      -1.15540000        1 
H       5.31230000       0.46000000       0.18610000        1 
