11
Properties=species:S:1:pos:R:3:Z:I:1 pbc="F F F"
O       2.79780000       0.09930000       0.13660000        8 
C       1.49790000      -0.03550000      -0.34670000        6 
C       0.45070000       0.01220000       0.46950000        6 
C      -2.05340000       0.18620000      -0.37050000        6 
H       1.33980000      -0.18170000      -1.40660000        1 
H      -0.81100000      -0.12320000      -0.03490000        1 
H       0.58240000       0.15750000       1.53400000        1 
H      -1.69870000      -0.50380000       0.42240000        1 
H      -1.98750000      -0.31820000      -1.35640000        1 
H      -3.10710000       0.46960000      -0.16990000        1 
H       2.98910000       0.23770000       1.12250000        1 
