8
Properties=species:S:1:pos:R:3:Z:I:1 pbc="F F F"
O      -1.32660000       0.84930000      -0.41800000        8 
O       2.12610000       1.04980000      -0.16340000        8 
C      -0.90060000      -0.35080000       0.14620000        6 
C       0.39170000      -0.64620000       0.23450000        6 
H      -1.63730000      -1.05110000       0.51740000        1 
H       1.31070000       0.19910000      -0.21480000        1 
H       0.70610000      -1.58300000       0.67570000        1 
H      -0.67020000       1.53290000      -0.77760000        1 
