13
Properties=species:S:1:pos:R:3:Z:I:1 pbc="F F F"
O      -1.90650000      -0.54350000      -1.22320000        8 
O       0.86600000      -0.48970000       0.89950000        8 
O      -0.71880000      -0.25720000      -0.72590000        8 
C      -2.83390000      -0.09320000      -0.27470000        6 
C       2.18100000      -0.03550000       0.94430000        6 
C       2.76180000       0.48340000      -0.13160000        6 
H      -3.85800000      -0.30930000      -0.64260000        1 
H      -2.69250000      -0.62270000       0.69340000        1 
H      -2.74140000       1.00550000      -0.12730000        1 
H       2.73470000      -0.10820000       1.87130000        1 
H       2.22420000       0.56440000      -1.06740000        1 
H       3.78510000       0.83210000      -0.08060000        1 
H       0.19830000      -0.42620000      -0.13530000        1 
