9
Properties=species:S:1:pos:R:3:Z:I:1 pbc="F F F"
O      -0.25950000      -0.77220000      -0.91800000        8 
O       1.87540000      -1.45530000      -0.56690000        8 
O       2.47780000      -0.36690000      -0.13750000        8 
C      -1.10610000       0.14290000      -0.29890000        6 
C      -0.69960000       0.84850000       0.75040000        6 
H      -2.10940000       0.27840000      -0.68120000        1 
H       0.30000000       0.72680000       1.14700000        1 
H      -1.36980000       1.55620000       1.22080000        1 
H       0.89130000      -0.95840000      -0.51580000        1 
