8
Properties=species:S:1:pos:R:3:Z:I:1 pbc="F F F"
O       0.68110000      -0.42250000       1.02900000        8 
C      -0.32000000      -0.76670000       0.12480000        6 
C      -0.73760000       0.09590000      -0.79510000        6 
H      -0.76200000      -1.75320000       0.17550000        1 
H      -1.51680000      -0.18760000      -1.49060000        1 
H      -0.30770000       1.08700000      -0.86170000        1 
H       1.19330000       0.64730000       1.00970000        1 
H       1.76970000       1.30000000       0.80850000        1 
