5
Properties=species:S:1:pos:R:3:Z:I:1 pbc="F F F"
O      -1.25670000      -0.91130000       0.05030000        8 
O       1.95010000      -0.07110000      -0.02070000        8 
C      -0.50680000       0.04960000       0.01420000        6 
H       0.69700000      -0.10760000      -0.28640000        1 
H      -0.88360000       1.04040000       0.24270000        1 
