8
Properties=species:S:1:pos:R:3:Z:I:1 pbc="F F F"
O       1.95820000      -0.09100000       1.25790000        8 
C      -1.14660000       0.00180000      -0.16430000        6 
C       1.45910000       0.01360000       0.15030000        6 
H       0.22410000      -0.30790000      -0.03330000        1 
H       2.05400000       0.37700000      -0.68040000        1 
H      -1.53360000       0.89760000       0.36360000        1 
H      -1.48110000       0.02260000      -1.22190000        1 
H      -1.53410000      -0.91370000       0.32810000        1 
