6
Properties=species:S:1:pos:R:3:Z:I:1 pbc="F F F"
O      -1.62390000       0.95370000      -0.53440000        8 
O       1.45860000      -0.35970000      -0.09930000        8 
O       2.56770000       0.25890000       0.24580000        8 
C      -1.05830000       0.00590000      -0.01600000        6 
H       0.28520000      -0.13330000      -0.14110000        1 
H      -1.62930000      -0.72560000       0.54510000        1 
