5
Properties=species:S:1:pos:R:3:Z:I:1 pbc="F F F"
O      -1.17790000      -0.94200000       0.04950000        8 
C      -0.47490000       0.05270000      -0.00920000        6 
H       0.81750000      -0.06820000      -0.18110000        1 
H      -0.92010000       1.03740000       0.08110000        1 
H       1.75540000      -0.07990000       0.05970000        1 
