21
Properties=species:S:1:pos:R:3:Z:I:1 pbc="F F F"
O       0.22440000      -0.35620000       0.88470000        8 
O       2.44750000       1.78690000       0.07040000        8 
C      -1.03850000      -0.11430000       0.32020000        6 
C      -1.04890000      -0.59010000      -1.14220000        6 
C      -2.08290000      -0.90060000       1.12490000        6 
C      -1.35600000       1.38870000       0.39280000        6 
C       3.30800000      -0.32430000      -0.52570000        6 
C       2.20380000       0.61890000      -0.18550000        6 
H      -0.31010000      -0.02020000      -1.74520000        1 
H      -2.05420000      -0.44620000      -1.59410000        1 
H      -0.78550000      -1.66820000      -1.19830000        1 
H      -2.07500000      -0.57670000       2.18800000        1 
H      -1.85600000      -1.98810000       1.09320000        1 
H      -3.10260000      -0.73920000       0.71290000        1 
H      -1.31450000       1.74070000       1.44600000        1 
H      -0.61950000       1.97400000      -0.19830000        1 
H      -2.37090000       1.59500000      -0.01080000        1 
H       2.88320000      -1.32970000      -0.72390000        1 
H       3.84140000       0.03170000      -1.43200000        1 
H       4.02150000      -0.39020000       0.32220000        1 
H       1.08460000       0.30800000       0.20060000        1 
