28
Properties=species:S:1:pos:R:3:Z:I:1 pbc="F F F"
O       3.44790000       1.64260000       0.06560000        8 
C       1.79860000      -0.12240000       0.27230000        6 
C       3.20680000       0.28620000      -0.19770000        6 
C       0.71560000       0.66470000      -0.47390000        6 
C       1.58500000      -1.62720000       0.07780000        6 
C      -2.82390000      -0.71570000      -1.02170000        6 
C      -2.15910000       1.53410000      -0.08280000        6 
C      -1.60790000      -0.57850000       1.18900000        6 
C      -1.79300000       0.05260000      -0.19230000        6 
H       1.70560000       0.10010000       1.35810000        1 
H       3.97750000      -0.33800000       0.31030000        1 
H       3.30530000       0.11340000      -1.29120000        1 
H      -0.53260000       0.27880000      -0.03010000        1 
H       0.82680000       1.75300000      -0.28260000        1 
H       0.78000000       0.48240000      -1.56830000        1 
H       0.58020000      -1.92350000       0.44780000        1 
H       1.66700000      -1.89990000      -0.99650000        1 
H       2.34480000      -2.19930000       0.65190000        1 
H      -3.82210000      -0.68290000      -0.53450000        1 
H      -2.50830000      -1.77460000      -1.13170000        1 
H      -2.90050000      -0.27160000      -2.03650000        1 
H      -3.12990000       1.66020000       0.44330000        1 
H      -1.36970000       2.07900000       0.47650000        1 
H      -2.23480000       1.98140000      -1.09630000        1 
H      -2.55570000      -0.54000000       1.76790000        1 
H      -0.81760000      -0.03670000       1.75020000        1 
H      -1.29050000      -1.63730000       1.08230000        1 
H       3.60450000       1.71890000       1.04300000        1 
