12
Properties=species:S:1:pos:R:3:Z:I:1 pbc="F F F"
O       1.34330000       0.87920000       0.43470000        8 
O      -1.38860000       1.71380000      -0.89990000        8 
C      -1.95870000      -0.35820000       0.06700000        6 
C       2.17480000      -0.20260000       0.14010000        6 
C      -1.00520000       0.73480000      -0.28050000        6 
H      -1.41970000      -1.15100000       0.62550000        1 
H      -2.77660000       0.04320000       0.70130000        1 
H      -2.38780000      -0.79250000      -0.86020000        1 
H       3.17370000      -0.03080000       0.59100000        1 
H       1.74190000      -1.13500000       0.55960000        1 
H       2.28500000      -0.30380000      -0.96010000        1 
H       0.21780000       0.60290000      -0.11860000        1 
