21
Properties=species:S:1:pos:R:3:Z:I:1 pbc="F F F"
C       1.75590000       0.30990000      -0.13330000        6 
C       2.45880000      -0.54920000       0.90230000        6 
C      -1.86180000       1.39240000      -0.48390000        6 
C      -1.11070000      -0.86410000      -1.33760000        6 
C      -0.74940000      -0.24580000       1.08560000        6 
C      -0.82870000       0.27170000      -0.35200000        6 
H       0.41700000      -0.02090000      -0.17500000        1 
H       1.85880000       1.38270000       0.13380000        1 
H       2.20570000       0.13820000      -1.13390000        1 
H       3.53720000      -0.28780000       0.94080000        1 
H       2.00480000      -0.37740000       1.90060000        1 
H       2.35140000      -1.62090000       0.63380000        1 
H      -2.87900000       1.01910000      -0.23700000        1 
H      -1.60510000       2.22690000       0.20220000        1 
H      -1.86210000       1.78710000      -1.52180000        1 
H      -0.31840000      -1.63820000      -1.26010000        1 
H      -2.09670000      -1.33100000      -1.12610000        1 
H      -1.10990000      -0.47270000      -2.37670000        1 
H      -1.72040000      -0.68710000       1.39760000        1 
H       0.04340000      -1.01910000       1.16660000        1 
H      -0.49100000       0.58630000       1.77400000        1 
