16
Properties=species:S:1:pos:R:3:Z:I:1 pbc="F F F"
O       3.31600000       0.63740000       0.39230000        8 
C      -0.30090000      -0.98820000      -1.15790000        6 
C      -0.90610000      -0.47070000       1.24010000        6 
C      -0.31390000       1.40470000      -0.34640000        6 
C      -0.06350000      -0.05640000       0.03210000        6 
C       2.53630000      -0.26420000       0.64960000        6 
H      -1.35960000      -0.93620000      -1.49160000        1 
H       0.36030000      -0.70030000      -2.00220000        1 
H      -0.06100000      -2.03450000      -0.87350000        1 
H      -1.98990000      -0.39710000       1.00590000        1 
H      -0.66710000      -1.51610000       1.52800000        1 
H      -0.67630000       0.18630000       2.10530000        1 
H      -1.37310000       1.55600000      -0.64640000        1 
H      -0.08320000       2.06440000       0.51650000        1 
H       0.34730000       1.69610000      -1.18950000        1 
H       1.23480000      -0.18120000       0.23760000        1 
