20
Properties=species:S:1:pos:R:3:Z:I:1 pbc="F F F"
O       1.85360000      -0.72190000       1.91900000        8 
C      -0.93870000       1.58820000      -0.63220000        6 
C      -1.46680000       0.07720000       1.32310000        6 
C      -1.25460000      -0.89150000      -1.00100000        6 
C       2.86290000      -0.54080000      -0.20170000        6 
C      -0.76930000       0.19020000      -0.03400000        6 
C       1.71020000      -0.44020000       0.74040000        6 
H      -2.01190000       1.80640000      -0.82110000        1 
H      -0.53060000       2.35030000       0.06460000        1 
H      -0.37970000       1.66110000      -1.58880000        1 
H      -2.56190000       0.23280000       1.21520000        1 
H      -1.28420000      -0.92690000       1.76030000        1 
H      -1.05950000       0.83720000       2.02270000        1 
H      -1.07170000      -1.89710000      -0.56710000        1 
H      -0.69600000      -0.82220000      -1.95810000        1 
H      -2.34090000      -0.77610000      -1.20520000        1 
H       3.67880000       0.13550000       0.12910000        1 
H       2.53580000      -0.24520000      -1.22000000        1 
H       3.23640000      -1.58580000      -0.22850000        1 
H       0.48810000      -0.03110000       0.28300000        1 
