21
Properties=species:S:1:pos:R:3:Z:I:1 pbc="F F F"
O       0.24260000       1.04720000      -0.73070000        8 
O       3.20500000       1.91020000      -1.43860000        8 
C      -1.78080000      -0.15310000      -0.21350000        6 
C      -0.25770000      -0.21800000      -0.40700000        6 
C      -2.35410000      -1.56010000      -0.00790000        6 
C      -2.14960000       0.74950000       0.97150000        6 
C       3.61550000       0.23280000       0.16480000        6 
C       2.72820000       1.06820000      -0.69510000        6 
H      -2.23650000       0.27350000      -1.13470000        1 
H       0.23270000      -0.58450000       0.52170000        1 
H      -0.01520000      -0.91980000      -1.23480000        1 
H      -1.92320000      -2.03020000       0.90240000        1 
H      -2.12340000      -2.20040000      -0.88600000        1 
H      -3.45860000      -1.51200000       0.10150000        1 
H      -1.70490000       0.36190000       1.91340000        1 
H      -1.78180000       1.78320000       0.79950000        1 
H      -3.25340000       0.79500000       1.08890000        1 
H       4.31420000      -0.35100000      -0.47030000        1 
H       4.19540000       0.88400000       0.85200000        1 
H       2.99470000      -0.46620000       0.76200000        1 
H       1.51070000       0.89000000      -0.85900000        1 
