16
Properties=species:S:1:pos:R:3:Z:I:1 pbc="F F F"
O       2.27600000      -0.12450000       1.01710000        8 
C       0.51290000      -0.51630000      -1.13130000        6 
C      -0.84600000      -0.67250000       0.99330000        6 
C      -0.86030000       1.46020000      -0.36170000        6 
C      -0.03760000       0.24650000       0.07530000        6 
H       1.14940000      -1.35910000      -0.78830000        1 
H      -0.31620000      -0.91710000      -1.75340000        1 
H       1.13920000       0.15820000      -1.75230000        1 
H      -1.73140000      -1.07970000       0.45930000        1 
H      -1.18840000      -0.10930000       1.88690000        1 
H      -0.21150000      -1.51550000       1.33930000        1 
H      -1.74630000       1.14150000      -0.95180000        1 
H      -0.23590000       2.13770000      -0.98150000        1 
H      -1.20270000       2.02660000       0.52990000        1 
H       1.04890000       0.23670000       0.35270000        1 
H       2.24970000      -1.11320000       1.06650000        1 
