13
Properties=species:S:1:pos:R:3:Z:I:1 pbc="F F F"
O      -2.30700000      -1.50110000      -0.31230000        8 
C       1.21730000      -1.12730000      -0.21230000        6 
C      -1.82640000       0.75240000       0.18160000        6 
C       1.87550000       0.16210000      -0.00040000        6 
C      -1.44880000      -0.64290000      -0.18610000        6 
C       2.41740000       1.22450000       0.17420000        6 
H      -0.91060000       1.37500000       0.24630000        1 
H      -2.34070000       0.75630000       1.16550000        1 
H      -2.50170000       1.17570000      -0.59120000        1 
H      -0.10400000      -0.96090000      -0.18460000        1 
H       1.51750000      -1.53860000      -1.19810000        1 
H       1.51800000      -1.83260000       0.58960000        1 
H       2.89330000       2.15730000       0.32760000        1 
