18
Properties=species:S:1:pos:R:3:Z:I:1 pbc="F F F"
O       3.99530000      -0.77680000      -0.08290000        8 
C      -0.74530000      -0.93050000      -1.19530000        6 
C      -0.61070000      -0.80990000       1.32500000        6 
C      -1.31660000       1.22180000      -0.00110000        6 
C      -0.45060000      -0.03940000       0.01300000        6 
C       2.04950000       0.85500000      -0.13050000        6 
C       3.04730000       0.01830000      -0.10610000        6 
H      -1.79890000      -1.28310000      -1.17470000        1 
H      -0.06790000      -1.81030000      -1.19120000        1 
H      -0.57010000      -0.36490000      -2.13470000        1 
H       0.06680000      -1.68960000       1.33280000        1 
H      -0.33970000      -0.15840000       2.18240000        1 
H      -1.65880000      -1.15750000       1.45020000        1 
H      -1.04660000       1.87630000       0.85430000        1 
H      -1.14230000       1.79050000      -0.93870000        1 
H      -2.39400000       0.95840000       0.06900000        1 
H       0.74570000       0.38140000      -0.08570000        1 
H       2.23690000       1.91860000      -0.18570000        1 
