20
Properties=species:S:1:pos:R:3:Z:I:1 pbc="F F F"
O       1.90280000      -0.07470000       1.30810000        8 
O       1.31510000      -1.06130000       0.65780000        8 
C      -1.82830000       0.19780000       1.05760000        6 
C      -1.38230000      -1.26520000      -0.95370000        6 
C      -0.54530000       1.11860000      -0.91490000        6 
C       3.04290000       0.25160000       0.56080000        6 
C      -0.85690000      -0.12480000      -0.07960000        6 
H      -2.80300000       0.54670000       0.65360000        1 
H      -1.40060000       0.98980000       1.70790000        1 
H      -1.99610000      -0.70610000       1.68030000        1 
H      -1.54950000      -2.17130000      -0.33400000        1 
H      -2.33850000      -0.97700000      -1.44110000        1 
H      -0.63670000      -1.51620000      -1.73730000        1 
H      -1.46680000       1.50560000      -1.40070000        1 
H       0.20160000       0.87110000      -1.69840000        1 
H      -0.11570000       1.91190000      -0.26750000        1 
H       3.72900000      -0.62130000       0.49180000        1 
H       3.58150000       1.07770000       1.06890000        1 
H       2.75840000       0.59590000      -0.45800000        1 
H       0.38840000      -0.54870000       0.09860000        1 
