21
Properties=species:S:1:pos:R:3:Z:I:1 pbc="F F F"
O      -3.03550000       0.79420000       0.86570000        8 
O       1.77170000      -1.02360000      -1.71950000        8 
C      -2.00480000       0.04800000       0.27270000        6 
C      -0.92330000      -0.25810000       1.32800000        6 
C      -1.44540000       0.84620000      -0.90730000        6 
C       0.14620000      -1.22500000       0.82150000        6 
C       3.23650000       0.59340000      -0.82920000        6 
C       2.01980000      -0.26860000      -0.79360000        6 
H      -2.42010000      -0.90860000      -0.12350000        1 
H      -1.41030000      -0.71950000       2.21470000        1 
H      -0.43730000       0.68380000       1.66290000        1 
H       0.93730000      -0.62200000      -0.10310000        1 
H      -0.32140000      -2.13130000       0.38140000        1 
H       0.79110000      -1.53780000       1.66960000        1 
H      -2.27420000       1.14120000      -1.58550000        1 
H      -0.93500000       1.76660000      -0.55110000        1 
H      -0.73170000       0.23190000      -1.49410000        1 
H       3.19280000       1.27020000      -1.70820000        1 
H       3.28200000       1.20170000       0.09740000        1 
H       4.14540000      -0.04070000      -0.89450000        1 
H      -3.58400000       0.15810000       1.39560000        1 
