28
Properties=species:S:1:pos:R:3:Z:I:1 pbc="F F F"
O       1.18860000      -1.22570000       1.46250000        8 
C       1.70030000       0.58450000      -0.04100000        6 
C       1.02780000      -0.78320000       0.14420000        6 
C       1.39250000       1.14330000      -1.43430000        6 
C       3.21700000       0.48950000       0.17200000        6 
C      -1.54490000       1.15730000       0.47590000        6 
C      -1.96970000      -1.20500000       1.26570000        6 
C      -2.46020000      -0.56610000      -1.12930000        6 
C      -1.56190000      -0.32180000       0.08490000        6 
H       1.28200000       1.28770000       0.71270000        1 
H      -0.27990000      -0.67280000      -0.12160000        1 
H       1.47020000      -1.52620000      -0.55730000        1 
H       1.78590000       0.46750000      -2.22410000        1 
H       0.29550000       1.25390000      -1.57020000        1 
H       1.85610000       2.14550000      -1.55640000        1 
H       3.44160000       0.13390000       1.19990000        1 
H       3.68420000       1.48970000       0.04700000        1 
H       3.67300000      -0.21260000      -0.55880000        1 
H      -1.19460000       1.77140000      -0.38030000        1 
H      -2.56050000       1.49570000       0.77420000        1 
H      -0.84560000       1.31690000       1.32360000        1 
H      -1.27110000      -1.04890000       2.11450000        1 
H      -1.92230000      -2.27490000       0.97250000        1 
H      -3.00300000      -0.96460000       1.59670000        1 
H      -3.51380000      -0.29920000      -0.89760000        1 
H      -2.11120000       0.04550000      -1.98790000        1 
H      -2.41350000      -1.63510000      -1.42600000        1 
H       0.63730000      -2.04640000       1.53860000        1 
