24
Properties=species:S:1:pos:R:3:Z:I:1 pbc="F F F"
O      -2.12990000       2.21640000       0.41390000        8 
C      -2.38140000      -0.92710000      -0.94930000        6 
C      -1.52580000      -0.33060000       1.35340000        6 
C       1.01840000       0.86960000      -0.71800000        6 
C       2.16540000      -1.35180000      -0.06080000        6 
C      -1.46450000      -0.00760000      -0.14350000        6 
C       2.07740000       0.14440000       0.06570000        6 
C      -1.75930000       1.43900000      -0.45250000        6 
C       2.92330000       0.81690000       0.86140000        6 
H      -3.44330000      -0.76930000      -0.66190000        1 
H      -2.26470000      -0.72290000      -2.03480000        1 
H      -2.10980000      -1.98840000      -0.76750000        1 
H      -0.81440000       0.31600000       1.90920000        1 
H      -1.23430000      -1.38840000       1.52390000        1 
H      -2.55210000      -0.17000000       1.74840000        1 
H      -0.17530000       0.41420000      -0.36790000        1 
H       1.16970000       0.68720000      -1.80250000        1 
H       1.04390000       1.96600000      -0.53840000        1 
H       1.20580000      -1.80770000       0.26100000        1 
H       2.98200000      -1.77520000       0.56270000        1 
H       2.35590000      -1.62340000      -1.12010000        1 
H      -1.63990000       1.79750000      -1.46960000        1 
H       2.86380000       1.89680000       0.95700000        1 
H       3.68920000       0.29850000       1.43020000        1 
