18
Properties=species:S:1:pos:R:3:Z:I:1 pbc="F F F"
O       1.39160000      -0.39960000       2.18670000        8 
C      -1.61330000      -0.60750000      -0.20500000        6 
C      -0.37300000      -1.48320000      -0.33390000        6 
C       2.92180000       0.29820000       0.53610000        6 
C      -1.33350000       0.79880000      -0.65680000        6 
C      -2.28840000       1.73120000      -0.62360000        6 
C       1.70600000      -0.42550000       1.00790000        6 
H      -2.43010000      -1.04020000      -0.82250000        1 
H      -1.93680000      -0.59580000       0.85810000        1 
H       0.63390000      -0.97370000       0.42180000        1 
H      -0.60260000      -2.51000000       0.02120000        1 
H      -0.04690000      -1.53690000      -1.39470000        1 
H       3.03330000       0.15280000      -0.55810000        1 
H       2.82180000       1.38260000       0.75170000        1 
H       3.82090000      -0.10070000       1.05080000        1 
H      -0.34510000       1.07240000      -1.01710000        1 
H      -2.07230000       2.74250000      -0.95280000        1 
H      -3.28750000       1.49450000      -0.26990000        1 
