21
Properties=species:S:1:pos:R:3:Z:I:1 pbc="F F F"
O       0.31010000       2.23580000      -0.52400000        8 
O       2.52800000      -0.59320000       2.10260000        8 
C      -1.16440000       0.63860000       0.53560000        6 
C      -1.22040000      -0.30970000      -0.66830000        6 
C       0.16300000       1.39980000       0.59230000        6 
C      -2.53500000      -1.08390000      -0.69800000        6 
C       2.87600000      -0.96360000      -0.19850000        6 
C       2.18920000      -0.32500000       0.96140000        6 
H      -1.12670000       0.27120000      -1.61150000        1 
H      -0.37840000      -1.03390000      -0.61540000        1 
H      -2.00420000       1.36580000       0.48450000        1 
H      -1.27190000       0.05000000       1.47270000        1 
H       1.16150000       0.54100000       0.61850000        1 
H       0.21050000       1.99940000       1.52950000        1 
H      -2.64280000      -1.69710000       0.22200000        1 
H      -3.39360000      -0.38320000      -0.77490000        1 
H      -2.54850000      -1.76000000      -1.57870000        1 
H       2.42560000      -0.59130000      -1.14140000        1 
H       3.95610000      -0.70760000      -0.18400000        1 
H       2.75560000      -2.06600000      -0.14690000        1 
H      -0.28990000       3.01310000      -0.37750000        1 
