21
Properties=species:S:1:pos:R:3:Z:I:1 pbc="F F F"
O      -0.14830000      -2.52750000       1.12720000        8 
O       2.06000000       0.47110000       1.69340000        8 
C      -0.69760000      -0.47250000       0.00800000        6 
C      -1.66650000       0.71350000      -0.01180000        6 
C      -1.07080000      -1.47300000       1.10310000        6 
C      -1.28370000       1.71440000      -1.09720000        6 
C       2.94440000       0.20790000      -0.47490000        6 
C       1.82770000       0.27530000       0.51160000        6 
H      -1.64770000       1.22780000       0.97350000        1 
H      -2.70030000       0.35120000      -0.20270000        1 
H       0.53600000      -0.03080000       0.23190000        1 
H      -0.71730000      -0.98580000      -0.97850000        1 
H      -2.10100000      -1.86400000       0.93780000        1 
H      -1.04840000      -0.96480000       2.09050000        1 
H      -1.31700000       1.23130000      -2.09710000        1 
H      -1.99980000       2.56300000      -1.08930000        1 
H      -0.26200000       2.11040000      -0.91460000        1 
H       2.52880000       0.02430000      -1.48690000        1 
H       3.50240000       1.16760000      -0.47810000        1 
H       3.63340000      -0.62050000      -0.20750000        1 
H      -0.37230000      -3.11870000       0.36160000        1 
