25
Properties=species:S:1:pos:R:3:Z:I:1 pbc="F F F"
C       1.46740000      -0.53180000       0.31450000        6 
C       2.09180000      -1.21230000      -0.89980000        6 
C      -1.66440000      -1.28290000       0.99420000        6 
C      -1.91600000      -0.12510000      -1.23760000        6 
C      -1.31840000       1.21400000       0.82020000        6 
C      -1.18510000      -0.13270000       0.10650000        6 
C       2.01340000       0.85480000       0.51040000        6 
C       1.71960000       1.85000000      -0.33100000        6 
H       0.17840000      -0.47860000       0.17140000        1 
H       1.69130000      -1.13860000       1.21810000        1 
H       1.69700000      -2.24620000      -0.98640000        1 
H       1.83750000      -0.65970000      -1.82870000        1 
H       3.19640000      -1.25990000      -0.78980000        1 
H      -1.50760000      -2.25220000       0.47580000        1 
H      -1.08240000      -1.29960000       1.93970000        1 
H      -2.74360000      -1.16970000       1.23390000        1 
H      -1.51330000       0.68370000      -1.88310000        1 
H      -3.00560000       0.03620000      -1.09040000        1 
H      -1.75950000      -1.09270000      -1.75930000        1 
H      -0.91480000       2.02470000       0.17760000        1 
H      -0.73580000       1.20100000       1.76540000        1 
H      -2.38320000       1.43080000       1.05270000        1 
H       2.63950000       1.05860000       1.37410000        1 
H       2.11830000       2.84400000      -0.15630000        1 
H       1.07940000       1.68410000      -1.19210000        1 
