23
Properties=species:S:1:pos:R:3:Z:I:1 pbc="F F F"
O       2.20300000      -1.19990000      -0.99720000        8 
C      -0.91860000      -0.33970000       1.30200000        6 
C      -2.30770000       0.98740000      -0.33940000        6 
C      -1.83600000      -1.45730000      -0.77030000        6 
C       1.09340000       0.81820000      -0.52100000        6 
C       3.43310000       0.20700000       0.44140000        6 
C      -1.30510000      -0.15540000      -0.16690000        6 
C       2.24210000      -0.13460000      -0.40160000        6 
H      -0.15130000      -1.13700000       1.39450000        1 
H      -0.48690000       0.60220000       1.70110000        1 
H      -1.80680000      -0.61810000       1.90910000        1 
H      -2.53060000       1.13630000      -1.41690000        1 
H      -1.87800000       1.93130000       0.05730000        1 
H      -3.25340000       0.76410000       0.19970000        1 
H      -2.76210000      -1.78200000      -0.24910000        1 
H      -1.07000000      -2.25620000      -0.68080000        1 
H      -2.05820000      -1.31200000      -1.84850000        1 
H      -0.04190000       0.21440000      -0.08040000        1 
H       1.27260000       1.73200000       0.08430000        1 
H       0.96180000       1.11210000      -1.58340000        1 
H       4.18260000      -0.61270000       0.41260000        1 
H       3.11320000       0.36290000       1.49290000        1 
H       3.90480000       1.13700000       0.06070000        1 
