11
Properties=species:S:1:pos:R:3:Z:I:1 pbc="F F F"
O       1.04310000       1.83800000      -0.26510000        8 
C       1.69140000      -0.42050000      -0.08600000        6 
C      -1.90280000      -0.01450000       0.14750000        6 
C       0.68940000       0.68440000      -0.08340000        6 
H       2.44000000      -0.25170000       0.71620000        1 
H       1.17400000      -1.38490000       0.09510000        1 
H       2.20480000      -0.46080000      -1.06950000        1 
H      -0.56900000       0.32020000      -0.07300000        1 
H      -2.07280000      -0.16010000       1.23410000        1 
H      -2.55530000       0.80280000      -0.22260000        1 
H      -2.14290000      -0.95300000      -0.39330000        1 
