16
Properties=species:S:1:pos:R:3:Z:I:1 pbc="F F F"
O       1.37890000       2.20280000      -0.11640000        8 
O      -2.11870000      -1.36150000      -0.92010000        8 
C       1.89930000      -0.07520000      -0.47520000        6 
C       0.93130000      -1.17440000      -0.06010000        6 
C      -2.47670000       0.60390000       0.32970000        6 
C       1.70860000       1.13850000       0.38200000        6 
C      -1.67470000      -0.57970000      -0.09510000        6 
H       2.94300000      -0.43830000      -0.36350000        1 
H       1.72610000       0.17740000      -1.54390000        1 
H      -0.34770000      -0.73540000      -0.18490000        1 
H       1.11600000      -1.47550000       0.99340000        1 
H       1.07130000      -2.06100000      -0.71380000        1 
H      -1.90260000       1.18550000       1.07990000        1 
H      -2.68890000       1.24960000      -0.54810000        1 
H      -3.43300000       0.26790000       0.78240000        1 
H       1.86760000       1.07530000       1.45380000        1 
