28
Properties=species:S:1:pos:R:3:Z:I:1 pbc="F F F"
O       0.81370000      -1.39790000       1.50120000        8 
C       1.32700000       0.07870000      -0.33830000        6 
C       2.82300000      -0.25910000      -0.37570000        6 
C       0.49190000      -1.09850000       0.17140000        6 
C       3.63830000       0.91390000      -0.91180000        6 
C      -2.92280000       0.36130000       1.49210000        6 
C      -1.02680000       0.90840000      -0.08610000        6 
C      -2.70260000      -0.88130000      -0.69700000        6 
C      -1.95400000      -0.18770000       0.44280000        6 
H       3.18040000      -0.50460000       0.64790000        1 
H       2.99190000      -1.14260000      -1.02930000        1 
H       0.98050000       0.33650000      -1.36250000        1 
H       1.15390000       0.95970000       0.31750000        1 
H      -0.80780000      -0.79170000       0.07470000        1 
H       0.67710000      -1.99490000      -0.45820000        1 
H       3.32090000       1.16370000      -1.94670000        1 
H       4.71490000       0.64240000      -0.92670000        1 
H       3.50560000       1.80500000      -0.26190000        1 
H      -2.35480000       0.81110000       2.33350000        1 
H      -3.58600000       1.13410000       1.04720000        1 
H      -3.54700000      -0.46210000       1.89880000        1 
H      -0.29940000       0.47510000      -0.80440000        1 
H      -1.61130000       1.70390000      -0.59640000        1 
H      -0.45600000       1.35910000       0.75300000        1 
H      -3.35670000      -0.16000000      -1.23270000        1 
H      -3.32650000      -1.70650000      -0.29350000        1 
H      -1.97770000      -1.31720000      -1.41630000        1 
H       0.31020000      -0.74910000       2.05740000        1 
