20
Properties=species:S:1:pos:R:3:Z:I:1 pbc="F F F"
C      -1.16920000       0.47490000       1.65270000        6 
C      -1.95000000      -0.82620000      -0.36770000        6 
C      -0.41500000       1.15950000      -0.65970000        6 
C       1.46410000      -1.07890000      -0.48550000        6 
C      -0.81180000      -0.00820000       0.24570000        6 
C       2.69320000      -0.29880000      -0.33950000        6 
C       3.70570000       0.34420000      -0.21920000        6 
H      -1.40080000      -0.39400000       2.30410000        1 
H      -0.30880000       1.01870000       2.09640000        1 
H      -2.05020000       1.15160000       1.62290000        1 
H      -2.18270000      -1.69700000       0.28070000        1 
H      -2.86340000      -0.20350000      -0.48130000        1 
H      -1.64610000      -1.21000000      -1.36440000        1 
H      -0.10890000       0.77860000      -1.65680000        1 
H      -1.26470000       1.86460000      -0.78540000        1 
H       0.44660000       1.70430000      -0.21940000        1 
H       0.39890000      -0.30510000      -0.17060000        1 
H       1.49860000      -1.95480000       0.19460000        1 
H       1.36990000      -1.42860000      -1.53420000        1 
H       4.59460000       0.90870000      -0.11350000        1 
