22
Properties=species:S:1:pos:R:3:Z:I:1 pbc="F F F"
O       2.33770000       1.53100000      -0.48810000        8 
C       2.49870000       0.41880000       0.34870000        6 
C       1.61610000      -0.72810000      -0.12370000        6 
C      -1.66540000      -1.38520000      -0.46200000        6 
C      -1.33810000       1.08300000      -0.89280000        6 
C      -1.26420000       0.19230000       1.47070000        6 
C      -0.96810000      -0.10380000      -0.00090000        6 
H       3.56430000       0.09610000       0.37190000        1 
H       2.20020000       0.70190000       1.37980000        1 
H       0.29740000      -0.32270000      -0.14120000        1 
H       1.91550000      -1.04540000      -1.14500000        1 
H       1.72070000      -1.59130000       0.56690000        1 
H      -1.39220000      -1.60710000      -1.51510000        1 
H      -1.33960000      -2.24080000       0.16630000        1 
H      -2.76920000      -1.27950000      -0.38760000        1 
H      -0.77900000       1.98700000      -0.57150000        1 
H      -2.42830000       1.29110000      -0.83620000        1 
H      -1.06440000       0.86470000      -1.94650000        1 
H      -0.70490000       1.09500000       1.79540000        1 
H      -0.93770000      -0.66100000       2.10180000        1 
H      -2.35130000       0.36340000       1.62520000        1 
H       2.85170000       1.34030000      -1.31590000        1 
