21
Properties=species:S:1:pos:R:3:Z:I:1 pbc="F F F"
O      -1.69660000       1.12010000      -1.76050000        8 
O       2.02540000       0.93480000      -1.81560000        8 
C      -0.72990000      -0.08190000       0.10750000        6 
C      -1.63360000       1.07250000      -0.36030000        6 
C      -0.57150000      -0.05420000       1.63120000        6 
C      -1.28320000      -1.43810000      -0.34670000        6 
C       2.85700000      -0.14600000       0.10620000        6 
C       1.76260000       0.34150000      -0.78220000        6 
H       0.44990000       0.07510000      -0.42000000        1 
H      -1.24980000       2.04230000       0.03140000        1 
H      -2.66180000       0.93380000       0.03810000        1 
H      -0.12850000       0.91270000       1.95100000        1 
H       0.10890000      -0.86860000       1.95900000        1 
H      -1.55570000      -0.18310000       2.13130000        1 
H      -2.29700000      -1.61030000       0.07470000        1 
H      -1.34140000      -1.47800000      -1.45470000        1 
H      -0.61050000      -2.25570000      -0.01100000        1 
H       2.41470000      -0.65530000       0.98690000        1 
H       3.47190000       0.71150000       0.45130000        1 
H       3.49890000      -0.86370000      -0.44630000        1 
H      -0.82960000       1.49050000      -2.07160000        1 
