15
Properties=species:S:1:pos:R:3:Z:I:1 pbc="F F F"
O       1.89270000      -1.18740000      -1.35590000        8 
C      -3.06930000       0.44270000       0.13740000        6 
C       2.94090000      -0.16770000       0.49190000        6 
C      -1.72430000       0.11960000      -0.42910000        6 
C      -0.62760000       0.26550000       0.31330000        6 
C       1.75540000      -0.67760000      -0.25580000        6 
H      -3.27310000      -0.19880000       1.02080000        1 
H      -3.10720000       1.51070000       0.43970000        1 
H      -3.85170000       0.25840000      -0.62820000        1 
H       3.44530000       0.62600000      -0.09820000        1 
H       2.60830000       0.25500000       1.46220000        1 
H       3.65290000      -0.99830000       0.68050000        1 
H      -1.64190000      -0.23610000      -1.45210000        1 
H       0.65060000      -0.04280000      -0.22880000        1 
H       0.34900000       0.03110000      -0.09760000        1 
