28
Properties=species:S:1:pos:R:3:Z:I:1 pbc="F F F"
O      -1.36730000      -1.50320000      -0.81950000        8 
C      -1.78540000      -0.40100000      -0.05110000        6 
C      -0.74400000      -0.16800000       1.05010000        6 
C      -3.15390000      -0.69750000       0.58960000        6 
C      -1.87410000       0.85220000      -0.94030000        6 
C       1.84060000       0.08550000      -1.48410000        6 
C       2.09590000       1.50430000       0.59110000        6 
C       2.49010000      -0.98880000       0.70870000        6 
C       1.69690000       0.13460000       0.03830000        6 
H       0.48870000       0.08560000       0.48440000        1 
H      -0.65240000      -1.06960000       1.69330000        1 
H      -1.02790000       0.69680000       1.68830000        1 
H      -3.47800000       0.14860000       1.23340000        1 
H      -3.92500000      -0.85640000      -0.19460000        1 
H      -3.09690000      -1.61640000       1.21180000        1 
H      -0.89380000       1.05230000      -1.42360000        1 
H      -2.16250000       1.74150000      -0.33900000        1 
H      -2.63240000       0.70950000      -1.73990000        1 
H       1.49460000      -0.89820000      -1.86570000        1 
H       2.89990000       0.23890000      -1.78310000        1 
H       1.21410000       0.87550000      -1.94940000        1 
H       3.16580000       1.71650000       0.37820000        1 
H       1.46980000       2.29630000       0.12890000        1 
H       1.93190000       1.53200000       1.68900000        1 
H       3.57630000      -0.88000000       0.50070000        1 
H       2.32670000      -0.96470000       1.80680000        1 
H       2.14500000      -1.97410000       0.33040000        1 
H      -2.04240000      -1.65270000      -1.53280000        1 
