27
Properties=species:S:1:pos:R:3:Z:I:1 pbc="F F F"
C       1.89410000      -0.43820000      -0.01660000        6 
C       0.91790000       0.50610000       0.68990000        6 
C       3.34320000      -0.05770000       0.30510000        6 
C       1.65380000      -0.42240000      -1.52920000        6 
C      -2.50520000       1.31530000      -0.46890000        6 
C      -1.35720000      -0.93200000      -0.59660000        6 
C      -2.30530000      -0.12070000       1.60060000        6 
C      -1.65280000       0.28780000       0.27830000        6 
H       1.71060000      -1.46980000       0.35590000        1 
H      -0.38010000       0.12810000       0.41430000        1 
H       1.06770000       1.55370000       0.35040000        1 
H       1.06730000       0.45920000       1.78980000        1 
H       3.51620000      -0.10280000       1.40160000        1 
H       4.04290000      -0.76840000      -0.18430000        1 
H       3.56800000       0.97060000      -0.05180000        1 
H       2.34160000      -1.13460000      -2.03310000        1 
H       0.61100000      -0.73210000      -1.75470000        1 
H       1.82390000       0.59470000      -1.94370000        1 
H      -3.49400000       0.88430000      -0.73640000        1 
H      -1.98580000       1.63540000      -1.39670000        1 
H      -2.66030000       2.21260000       0.16650000        1 
H      -0.83610000      -0.61520000      -1.52460000        1 
H      -2.29830000      -1.45620000      -0.86940000        1 
H      -0.69390000      -1.63680000      -0.05230000        1 
H      -3.28570000      -0.61120000       1.41890000        1 
H      -1.64340000      -0.82430000       2.14810000        1 
H      -2.46010000       0.77460000       2.23900000        1 
