15
Properties=species:S:1:pos:R:3:Z:I:1 pbc="F F F"
O      -1.78080000      -1.22710000       0.51440000        8 
O       1.66470000       1.10570000      -1.05230000        8 
C      -1.17510000       0.03450000       0.48630000        6 
C      -1.91050000       0.95040000      -0.48200000        6 
C       2.45660000      -0.66240000       0.28930000        6 
C       1.40500000       0.27890000      -0.19330000        6 
H       0.08730000      -0.07120000       0.12520000        1 
H      -1.21160000       0.47390000       1.50550000        1 
H      -1.43290000       1.95260000      -0.48150000        1 
H      -2.97280000       1.05520000      -0.17520000        1 
H      -1.86480000       0.53120000      -1.50910000        1 
H       2.02440000      -1.32900000       1.06360000        1 
H       3.30030000      -0.09080000       0.72940000        1 
H       2.82750000      -1.27830000      -0.55670000        1 
H      -1.41720000      -1.72360000      -0.26370000        1 
