24
Properties=species:S:1:pos:R:3:Z:I:1 pbc="F F F"
C       2.00350000       0.26140000       0.65590000        6 
C       1.17890000      -0.08850000      -0.57750000        6 
C       3.44840000       0.58180000       0.28570000        6 
C      -1.50720000      -1.47660000       0.55560000        6 
C      -2.03280000      -0.13220000      -1.51830000        6 
C      -1.93910000       1.00650000       0.73540000        6 
C      -1.37680000      -0.11820000      -0.13620000        6 
H       1.98560000      -0.59660000       1.36150000        1 
H       1.54890000       1.14060000       1.16060000        1 
H      -0.11630000      -0.36970000      -0.19380000        1 
H       1.60240000      -0.98130000      -1.08530000        1 
H       1.16310000       0.76600000      -1.28730000        1 
H       4.02030000       0.83180000       1.20400000        1 
H       3.48610000       1.45160000      -0.40430000        1 
H       3.92510000      -0.29500000      -0.20230000        1 
H      -1.04440000      -2.26720000      -0.07190000        1 
H      -0.97780000      -1.45700000       1.53150000        1 
H      -2.57590000      -1.72820000       0.72720000        1 
H      -1.87800000       0.84570000      -2.02090000        1 
H      -1.57070000      -0.92080000      -2.14880000        1 
H      -3.12330000      -0.32810000      -1.43280000        1 
H      -3.02580000       0.85790000       0.91440000        1 
H      -1.78420000       1.98620000       0.23610000        1 
H      -1.41030000       1.02970000       1.71150000        1 
