18
Properties=species:S:1:pos:R:3:Z:I:1 pbc="F F F"
C      -0.71140000       1.00290000      -1.13060000        6 
C      -0.73250000       0.63230000       1.36880000        6 
C      -1.01460000      -1.32720000      -0.20130000        6 
C       2.29360000      -0.28820000      -0.03440000        6 
C      -0.36260000       0.04110000       0.00700000        6 
H      -0.18410000       1.96910000      -0.98470000        1 
H      -0.38480000       0.57510000      -2.10180000        1 
H      -1.80650000       1.18840000      -1.16530000        1 
H      -1.82850000       0.80240000       1.43780000        1 
H      -0.20520000       1.59800000       1.51830000        1 
H      -0.42090000      -0.05970000       2.17940000        1 
H      -2.12230000      -1.23830000      -0.19750000        1 
H      -0.70340000      -2.02210000       0.60690000        1 
H      -0.68840000      -1.75840000      -1.17120000        1 
H       0.88990000      -0.11550000      -0.00730000        1 
H       2.61060000      -0.57990000      -1.05670000        1 
H       2.78870000       0.66330000       0.24900000        1 
H       2.58230000      -1.08330000       0.68340000        1 
