28
Properties=species:S:1:pos:R:3:Z:I:1 pbc="F F F"
O       1.36440000       1.34380000       1.35560000        8 
C       1.82520000       0.71630000       0.18790000        6 
C       1.00500000      -0.56440000      -0.05820000        6 
C       3.31720000       0.41690000       0.35350000        6 
C       1.27690000      -1.19160000      -1.42440000        6 
C      -1.84060000       0.37740000      -1.20870000        6 
C      -1.91350000       1.07460000       1.21890000        6 
C      -2.36170000      -1.32880000       0.58060000        6 
C      -1.58920000      -0.05360000       0.23760000        6 
H       1.70420000       1.40840000      -0.67830000        1 
H      -0.30850000      -0.25280000      -0.00300000        1 
H       1.20820000      -1.31080000       0.74070000        1 
H       2.30880000      -1.59630000      -1.47480000        1 
H       0.56770000      -2.02950000      -1.58860000        1 
H       1.12980000      -0.44260000      -2.23100000        1 
H       3.47940000      -0.32790000       1.16180000        1 
H       3.85810000       1.35010000       0.61860000        1 
H       3.74910000       0.03170000      -0.59330000        1 
H      -1.22840000       1.27210000      -1.44920000        1 
H      -1.54730000      -0.43780000      -1.90330000        1 
H      -2.91400000       0.61910000      -1.36490000        1 
H      -1.67220000       0.75640000       2.25500000        1 
H      -2.98990000       1.34520000       1.16340000        1 
H      -1.30140000       1.97030000       0.98200000        1 
H      -2.06920000      -2.14650000      -0.11130000        1 
H      -2.12110000      -1.65060000       1.61580000        1 
H      -3.45670000      -1.15790000       0.49870000        1 
H       0.51950000       1.80890000       1.11890000        1 
