11
Properties=species:S:1:pos:R:3:Z:I:1 pbc="F F F"
O      -0.65640000      -0.44780000      -1.79100000        8 
O       3.56710000      -0.98840000       0.13660000        8 
C      -1.94750000      -0.22550000       0.16780000        6 
C       1.65500000       0.67740000       0.27900000        6 
C      -0.75370000       0.05210000      -0.68210000        6 
C       2.63550000      -0.17680000       0.20600000        6 
H      -2.02090000      -1.31470000       0.36960000        1 
H      -2.86700000       0.11820000      -0.35070000        1 
H      -1.84670000       0.31760000       1.12990000        1 
H       0.40100000       0.31340000      -0.12270000        1 
H       1.83360000       1.67450000       0.65760000        1 
