13
Properties=species:S:1:pos:R:3:Z:I:1 pbc="F F F"
O       2.59080000      -1.12480000       0.96170000        8 
O      -1.87370000       0.80040000      -1.49000000        8 
C       1.26950000      -0.28710000      -0.80630000        6 
C      -1.95030000       0.13280000       0.76860000        6 
C       2.17960000      -0.14020000       0.36920000        6 
C      -1.24100000       0.48800000      -0.49450000        6 
H       0.11680000       0.34280000      -0.55440000        1 
H       1.74530000       0.16730000      -1.70000000        1 
H       1.06040000      -1.35870000      -1.01180000        1 
H      -1.20380000      -0.11920000       1.54960000        1 
H      -2.60880000      -0.74430000       0.59670000        1 
H      -2.56150000       0.99350000       1.11200000        1 
H       2.47670000       0.84950000       0.69930000        1 
