9
Properties=species:S:1:pos:R:3:Z:I:1 pbc="F F F"
O      -0.31610000       1.33840000       1.27170000        8 
O       3.09800000      -0.70120000      -0.11990000        8 
C      -1.31000000      -0.26130000      -0.14450000        6 
C      -0.15510000       0.52650000       0.37520000        6 
C       2.36430000       0.18920000      -0.51450000        6 
H      -1.75180000      -0.86680000       0.67440000        1 
H      -2.08000000       0.42530000      -0.55470000        1 
H      -0.95890000      -0.93850000      -0.95010000        1 
H       1.10960000       0.28830000      -0.03760000        1 
