9
Properties=species:S:1:pos:R:3:Z:I:1 pbc="F F F"
O       2.23260000      -0.25100000      -0.64800000        8 
O      -0.07910000      -0.79390000       1.61090000        8 
C      -1.26890000       0.16280000      -0.18410000        6 
C      -0.03470000      -0.35730000       0.47240000        6 
H      -2.02990000      -0.64310000      -0.24720000        1 
H      -1.02060000       0.51100000      -1.20770000        1 
H      -1.67710000       1.01300000       0.40160000        1 
H       1.11040000      -0.19140000       0.21970000        1 
H       2.76730000       0.55000000      -0.41760000        1 
