19
Properties=species:S:1:pos:R:3:Z:I:1 pbc="F F F"
O       1.59650000      -0.69300000      -0.93390000        8 
C      -0.80670000      -0.69390000       1.28820000        6 
C      -1.60090000      -0.49360000      -1.10210000        6 
C      -0.65270000       1.52400000       0.08740000        6 
C       2.68030000      -0.25710000      -0.17000000        6 
C      -0.59810000       0.00190000      -0.05830000        6 
H      -0.70910000      -1.79320000       1.16570000        1 
H      -1.81350000      -0.46210000       1.69750000        1 
H      -0.03450000      -0.35780000       2.01190000        1 
H      -2.64060000      -0.25350000      -0.79200000        1 
H      -1.39480000      -0.01480000      -2.08260000        1 
H      -1.50440000      -1.59260000      -1.22820000        1 
H      -1.65310000       1.84780000       0.44690000        1 
H       0.11980000       1.86330000       0.80930000        1 
H      -0.44520000       2.00580000      -0.89130000        1 
H       3.62120000      -0.63890000      -0.61690000        1 
H       2.70810000       0.85270000      -0.15600000        1 
H       2.58780000      -0.64160000       0.86740000        1 
H       0.53990000      -0.20330000      -0.34310000        1 
