21
Properties=species:S:1:pos:R:3:Z:I:1 pbc="F F F"
O       0.14910000       1.16930000      -1.92450000        8 
O       2.71580000      -1.03770000      -0.05810000        8 
C      -1.05840000      -0.46350000      -0.60860000        6 
C      -0.15230000       0.77920000      -0.61320000        6 
C      -2.40540000      -0.16910000      -1.28160000        6 
C      -1.27610000      -0.95570000       0.82610000        6 
C       2.75480000       0.59080000       1.64470000        6 
C       2.15130000      -0.08920000       0.46230000        6 
H      -0.55070000      -1.27390000      -1.17680000        1 
H       0.96400000       0.52230000       0.03720000        1 
H      -0.65900000       1.62260000      -0.09630000        1 
H      -2.25080000       0.13620000      -2.33820000        1 
H      -3.04160000      -1.07980000      -1.27890000        1 
H      -2.94190000       0.64430000      -0.74720000        1 
H      -1.77770000      -0.17460000       1.43740000        1 
H      -0.30240000      -1.20950000       1.29680000        1 
H      -1.90630000      -1.87060000       0.82610000        1 
H       2.86490000      -0.13260000       2.47950000        1 
H       2.09370000       1.42150000       1.96670000        1 
H       3.75090000       1.00060000       1.37550000        1 
H       0.87820000       0.56950000      -2.22890000        1 
