20
Properties=species:S:1:pos:R:3:Z:I:1 pbc="F F F"
O       2.33750000      -0.60170000      -1.29270000        8 
C      -0.53640000      -0.61570000       0.67050000        6 
C      -1.46180000       0.57520000       0.38580000        6 
C      -1.06430000      -1.92590000       0.08940000        6 
C      -1.45010000       0.98770000      -1.08510000        6 
C       2.74120000       0.92290000       0.45820000        6 
C       1.87430000       0.01460000      -0.34680000        6 
H       0.67740000      -0.37430000       0.18500000        1 
H      -0.44310000      -0.73410000       1.77180000        1 
H      -2.50150000       0.33730000       0.69940000        1 
H      -1.11580000       1.43970000       0.99260000        1 
H      -1.05450000      -1.89350000      -1.01950000        1 
H      -2.09730000      -2.12260000       0.44710000        1 
H      -0.41070000      -2.76160000       0.41620000        1 
H      -0.41210000       1.18970000      -1.42460000        1 
H      -1.89960000       0.19560000      -1.71910000        1 
H      -2.04930000       1.91380000      -1.21290000        1 
H       3.57410000       0.34510000       0.91080000        1 
H       3.15490000       1.72230000      -0.19170000        1 
H       2.13720000       1.38550000       1.26570000        1 
