27
Properties=species:S:1:pos:R:3:Z:I:1 pbc="F F F"
C       0.98500000      -0.92740000       0.47580000        6 
C       2.05850000       0.13410000       0.75190000        6 
C       1.41760000      -1.94460000      -0.57830000        6 
C       2.22970000       1.11010000      -0.41080000        6 
C      -2.19740000      -0.73440000      -0.76760000        6 
C      -1.94530000       0.40930000       1.47140000        6 
C      -1.16750000       1.56910000      -0.63450000        6 
C      -1.35270000       0.22520000       0.07290000        6 
H      -0.16180000      -0.33210000       0.08080000        1 
H       0.77580000      -1.47170000       1.42210000        1 
H       3.03180000      -0.35350000       0.97750000        1 
H       1.75460000       0.71300000       1.65050000        1 
H       2.38430000      -2.41250000      -0.29480000        1 
H       1.51590000      -1.46020000      -1.57140000        1 
H       0.64790000      -2.74060000      -0.65700000        1 
H       2.64620000       0.59310000      -1.30000000        1 
H       1.25640000       1.57570000      -0.67470000        1 
H       2.93660000       1.91400000      -0.11600000        1 
H      -1.71860000      -0.89330000      -1.75680000        1 
H      -3.21960000      -0.32610000      -0.92020000        1 
H      -2.27200000      -1.71850000      -0.25860000        1 
H      -2.95700000       0.86510000       1.41160000        1 
H      -1.28680000       1.06570000       2.07830000        1 
H      -2.01940000      -0.57310000       1.98360000        1 
H      -2.14700000       2.07300000      -0.78160000        1 
H      -0.68730000       1.41360000      -1.62350000        1 
H      -0.50790000       2.22730000      -0.03060000        1 
