28
Properties=species:S:1:pos:R:3:Z:I:1 pbc="F F F"
O       3.44070000      -0.66070000      -0.47770000        8 
C       2.79230000       0.58710000      -0.47390000        6 
C       1.36020000       0.46780000       0.08200000        6 
C       3.60970000       1.60810000       0.32430000        6 
C       0.50070000      -0.47010000      -0.76090000        6 
C      -2.46890000      -1.96050000       0.09930000        6 
C      -3.12110000       0.28210000      -0.86530000        6 
C      -1.74710000       0.16890000       1.25230000        6 
C      -2.05880000      -0.49850000      -0.08870000        6 
H       2.73540000       0.94910000      -1.52390000        1 
H       1.38540000       0.09270000       1.12820000        1 
H       0.87930000       1.47000000       0.08800000        1 
H      -0.77670000      -0.50520000      -0.24060000        1 
H       0.91740000      -1.49950000      -0.74590000        1 
H       0.44800000      -0.10870000      -1.80990000        1 
H       3.13780000       2.61170000       0.26040000        1 
H       3.67580000       1.30780000       1.39200000        1 
H       4.63690000       1.67550000      -0.09250000        1 
H      -3.40100000      -2.03210000       0.70020000        1 
H      -2.63710000      -2.43680000      -0.88960000        1 
H      -1.65970000      -2.51730000       0.61700000        1 
H      -4.08020000       0.30340000      -0.30440000        1 
H      -3.29020000      -0.19100000      -1.85550000        1 
H      -2.77670000       1.32390000      -1.03520000        1 
H      -1.40070000       1.21060000       1.08540000        1 
H      -2.64920000       0.18560000       1.90100000        1 
H      -0.93680000      -0.38480000       1.77170000        1 
H       3.48480000      -0.97910000       0.46210000        1 
