19
Properties=species:S:1:pos:R:3:Z:I:1 pbc="F F F"
C      -0.37250000      -0.65070000       0.40340000        6 
C      -2.36200000      -0.88140000      -1.25110000        6 
C       3.07420000       0.13590000       0.77260000        6 
C      -1.65330000      -0.11280000      -0.16860000        6 
C       1.88940000       0.67070000      -0.01030000        6 
C      -2.14870000       1.04540000       0.28940000        6 
H       2.92520000       0.33410000       1.85440000        1 
H       4.00750000       0.63260000       0.43320000        1 
H       3.16190000      -0.95900000       0.61290000        1 
H       0.56340000       0.18950000       0.22130000        1 
H      -0.49320000      -0.83360000       1.49220000        1 
H      -0.09070000      -1.60680000      -0.08660000        1 
H      -1.69000000      -0.98990000      -2.12820000        1 
H      -3.29260000      -0.37200000      -1.58190000        1 
H      -2.62900000      -1.89070000      -0.87380000        1 
H       1.78950000       1.76470000       0.15130000        1 
H       2.02690000       0.46830000      -1.09340000        1 
H      -3.07180000       1.45750000      -0.10680000        1 
H      -1.63430000       1.59830000       1.07000000        1 
