22
Properties=species:S:1:pos:R:3:Z:I:1 pbc="F F F"
O       2.30330000       0.50220000       0.35070000        8 
C      -1.17260000       0.79230000      -0.66090000        6 
C      -2.52860000       1.49460000      -0.62230000        6 
C      -1.84590000      -1.47100000       0.31610000        6 
C       1.62600000      -0.72770000       0.22630000        6 
C       3.69260000       0.27480000       0.27920000        6 
C      -1.00070000      -0.21200000       0.48390000        6 
H      -1.04190000       0.28210000      -1.63950000        1 
H      -0.37380000       1.55880000      -0.57070000        1 
H      -2.56370000       2.27320000      -1.41330000        1 
H      -3.34960000       0.77180000      -0.80970000        1 
H      -2.68430000       1.98390000       0.36270000        1 
H      -2.92560000      -1.23390000       0.41440000        1 
H      -1.65430000      -1.93560000      -0.67390000        1 
H      -1.57180000      -2.19980000       1.10670000        1 
H       0.32630000      -0.50100000       0.29490000        1 
H       1.83240000      -1.20430000      -0.75800000        1 
H       1.89050000      -1.41980000       1.05680000        1 
H       4.03800000      -0.37810000       1.11170000        1 
H       4.21560000       1.24820000       0.37800000        1 
H       3.97990000      -0.16260000      -0.70310000        1 
H      -1.19190000       0.26390000       1.47010000        1 
