25
Properties=species:S:1:pos:R:3:Z:I:1 pbc="F F F"
O       1.45530000       1.94790000      -1.60330000        8 
C       1.03430000      -0.22370000      -0.65930000        6 
C       1.52710000      -1.30100000       0.31710000        6 
C       1.89900000       1.04110000      -0.63120000        6 
C       1.27570000      -0.92960000       1.77750000        6 
C      -2.47750000      -0.62030000      -0.98080000        6 
C      -1.98550000       0.88890000       0.97800000        6 
C      -1.53010000       0.42150000      -0.39890000        6 
H       0.98190000      -2.24490000       0.09990000        1 
H       2.61080000      -1.49410000       0.16120000        1 
H      -0.22350000       0.09370000      -0.38390000        1 
H       1.05890000      -0.64850000      -1.68650000        1 
H       1.81430000       1.53080000       0.36050000        1 
H       2.96980000       0.78550000      -0.80210000        1 
H       1.89960000      -0.06200000       2.07610000        1 
H       1.54570000      -1.78830000       2.42760000        1 
H       0.20350000      -0.68870000       1.93920000        1 
H      -2.10110000      -0.94460000      -1.97320000        1 
H      -3.49480000      -0.19160000      -1.10480000        1 
H      -2.52770000      -1.50660000      -0.31370000        1 
H      -1.26110000       1.63210000       1.37110000        1 
H      -2.98790000       1.36340000       0.91330000        1 
H      -2.02710000       0.02900000       1.67940000        1 
H      -1.45580000       1.29070000      -1.08730000        1 
H       1.79620000       1.61920000      -2.47600000        1 
