20
Properties=species:S:1:pos:R:3:Z:I:1 pbc="F F F"
O       2.65290000       1.03200000       1.33080000        8 
C      -1.24440000      -0.71530000       0.36750000        6 
C      -2.74820000      -0.45040000       0.41220000        6 
C      -0.51670000       1.25090000      -1.09360000        6 
C       3.04920000      -0.80230000      -0.10180000        6 
C      -0.42510000       0.57620000       0.27170000        6 
C       2.18570000       0.24220000       0.52600000        6 
H      -0.94970000      -1.24300000       1.29940000        1 
H      -1.00620000      -1.38310000      -0.48830000        1 
H      -2.99590000       0.24040000       1.24600000        1 
H      -3.09760000      -0.01310000      -0.54610000        1 
H      -3.28700000      -1.40770000       0.57440000        1 
H      -1.53920000       1.64560000      -1.26760000        1 
H       0.19880000       2.09830000      -1.12820000        1 
H      -0.25190000       0.53250000      -1.89780000        1 
H       4.09360000      -0.72680000       0.26980000        1 
H       3.04500000      -0.66850000      -1.20320000        1 
H       2.64770000      -1.80690000       0.14460000        1 
H      -0.69580000       1.28680000       1.08260000        1 
H       0.88470000       0.31220000       0.20160000        1 
