25
Properties=species:S:1:pos:R:3:Z:I:1 pbc="F F F"
O      -2.10230000      -0.84310000       1.78690000        8 
C      -1.32280000       0.14050000      -0.29710000        6 
C      -1.57270000       0.32250000       1.21080000        6 
C      -0.33050000      -0.99690000      -0.56090000        6 
C      -2.63180000      -0.08980000      -1.06240000        6 
C       2.90180000      -0.65460000      -0.50110000        6 
C       1.84420000       1.48830000       0.30270000        6 
C       1.87630000      -0.02920000       0.43630000        6 
H      -0.86740000       1.08080000      -0.67860000        1 
H      -0.61080000       0.55790000       1.71440000        1 
H      -2.24770000       1.19280000       1.38430000        1 
H       0.82660000      -0.76160000       0.10340000        1 
H      -0.74630000      -1.97160000      -0.22680000        1 
H      -0.10130000      -1.05990000      -1.64610000        1 
H      -2.43280000      -0.12010000      -2.15500000        1 
H      -3.10390000      -1.04960000      -0.76220000        1 
H      -3.34320000       0.73990000      -0.86370000        1 
H       3.92180000      -0.28690000      -0.25920000        1 
H       2.65840000      -0.40530000      -1.55540000        1 
H       2.88070000      -1.75810000      -0.38390000        1 
H       2.83220000       1.92090000       0.56890000        1 
H       1.58230000       1.77510000      -0.73760000        1 
H       1.07510000       1.90060000       0.98830000        1 
H       2.10360000      -0.31100000       1.48700000        1 
H      -3.08970000      -0.78170000       1.70690000        1 
