22
Properties=species:S:1:pos:R:3:Z:I:1 pbc="F F F"
C      -1.93040000       0.51120000      -0.04040000        6 
C      -1.86180000       0.79040000       1.45620000        6 
C      -0.95550000      -0.85900000      -1.92440000        6 
C       1.37990000      -0.55820000       0.79840000        6 
C      -0.97770000      -0.62300000      -0.41920000        6 
C       2.41120000      -0.07850000      -0.17820000        6 
C       3.28660000       0.88220000       0.13040000        6 
H      -2.97220000       0.23640000      -0.31480000        1 
H      -1.64860000       1.43550000      -0.58990000        1 
H      -2.17050000      -0.10860000       2.03130000        1 
H      -0.82810000       1.07530000       1.74720000        1 
H      -2.54660000       1.62680000       1.71030000        1 
H      -0.24440000      -1.67880000      -2.15680000        1 
H      -0.62110000       0.05970000      -2.45080000        1 
H      -1.96600000      -1.14620000      -2.28540000        1 
H       0.19870000      -0.36880000       0.29710000        1 
H       1.52450000      -1.64340000       0.97970000        1 
H       1.44690000      -0.02130000       1.76910000        1 
H      -1.26960000      -1.56150000       0.10080000        1 
H       2.44250000      -0.52830000      -1.16580000        1 
H       4.01860000       1.20390000      -0.60320000        1 
H       3.28340000       1.35420000       1.10830000        1 
