22
Properties=species:S:1:pos:R:3:Z:I:1 pbc="F F F"
O       2.64340000       0.64300000       0.80730000        8 
C      -1.70440000      -0.32190000      -0.22900000        6 
C       1.68880000       0.67700000      -0.21450000        6 
C      -2.24090000       0.85410000      -1.03630000        6 
C       1.80040000      -0.58020000      -1.06130000        6 
C      -0.04960000      -1.01230000       1.54930000        6 
C      -0.67260000       0.15490000       0.79340000        6 
H      -1.23260000      -1.04830000      -0.92570000        1 
H      -2.54820000      -0.82400000       0.29250000        1 
H       0.48320000       0.73990000       0.30430000        1 
H       1.85690000       1.56960000      -0.85660000        1 
H      -2.74790000       1.58220000      -0.36770000        1 
H      -1.41120000       1.36330000      -1.57180000        1 
H      -2.97560000       0.48770000      -1.78400000        1 
H       1.04080000      -0.55260000      -1.87050000        1 
H       2.81160000      -0.64520000      -1.51610000        1 
H       1.62290000      -1.47730000      -0.43150000        1 
H       0.46120000      -1.69790000       0.84080000        1 
H      -0.83010000      -1.57110000       2.10840000        1 
H       0.70030000      -0.62460000       2.26960000        1 
H      -1.14180000       0.85840000       1.51540000        1 
H       2.44560000       1.42520000       1.38400000        1 
