25
Properties=species:S:1:pos:R:3:Z:I:1 pbc="F F F"
O      -3.18160000       0.61480000       0.58040000        8 
C      -2.45260000      -0.53460000       0.92880000        6 
C      -1.11440000      -0.56510000       0.16980000        6 
C      -3.28750000      -1.76750000       0.58490000        6 
C      -0.19340000       0.57920000       0.58440000        6 
C       2.97340000       1.90740000      -0.94050000        6 
C       2.73720000      -0.58820000      -0.67090000        6 
C       2.00440000       0.73440000      -0.85860000        6 
H      -2.25600000      -0.55780000       2.02750000        1 
H      -0.58970000      -1.52290000       0.37820000        1 
H      -1.29760000      -0.50250000      -0.92500000        1 
H       0.99160000       0.45270000      -0.06020000        1 
H      -0.00730000       0.55030000       1.67910000        1 
H      -0.63930000       1.55860000       0.31060000        1 
H      -2.74660000      -2.69370000       0.87480000        1 
H      -4.24960000      -1.73590000       1.13920000        1 
H      -3.50480000      -1.79910000      -0.50440000        1 
H       3.57330000       1.97360000      -0.00840000        1 
H       3.65310000       1.78760000      -1.81100000        1 
H       2.39940000       2.84970000      -1.06010000        1 
H       3.33290000      -0.56570000       0.26600000        1 
H       1.99600000      -1.41120000      -0.59980000        1 
H       3.40960000      -0.78360000      -1.53320000        1 
H       1.38190000       0.69400000      -1.77840000        1 
H      -2.93210000       1.32570000       1.22680000        1 
