24
Properties=species:S:1:pos:R:3:Z:I:1 pbc="F F F"
C      -1.13570000       0.03750000      -0.09370000        6 
C      -1.77210000       0.71810000       1.12180000        6 
C      -1.63230000      -1.40520000      -0.22740000        6 
C      -1.42670000       0.83020000      -1.37150000        6 
C       2.27380000      -0.53370000      -0.96440000        6 
C       2.06700000       0.13930000       1.45660000        6 
C       1.49270000       0.28860000       0.05320000        6 
H       0.15050000       0.00970000       0.08320000        1 
H      -1.52390000       0.15540000       2.04660000        1 
H      -1.37720000       1.75060000       1.23010000        1 
H      -2.87730000       0.76430000       1.01330000        1 
H      -1.13680000      -1.90010000      -1.08950000        1 
H      -2.73280000      -1.43010000      -0.38100000        1 
H      -1.38320000      -1.98010000       0.68980000        1 
H      -0.93000000       0.34800000      -2.24010000        1 
H      -2.52030000       0.88010000      -1.56330000        1 
H      -1.02980000       1.86330000      -1.27740000        1 
H       2.24370000      -1.60950000      -0.69080000        1 
H       1.81380000      -0.40990000      -1.96670000        1 
H       3.32990000      -0.19190000      -1.00890000        1 
H       1.46060000       0.73920000       2.16660000        1 
H       3.11680000       0.50150000       1.48540000        1 
H       2.03320000      -0.92470000       1.77240000        1 
H       1.49580000       1.35930000      -0.24420000        1 
