14
Properties=species:S:1:pos:R:3:Z:I:1 pbc="F F F"
C      -0.80050000      -1.55810000      -0.16100000        6 
C      -1.47180000       0.83780000       0.24560000        6 
C      -0.35070000      -0.19000000       0.33640000        6 
C       2.23950000       0.80400000      -0.29480000        6 
C       3.37430000       1.06270000      -0.60830000        6 
H      -1.63950000      -1.93870000       0.45970000        1 
H       0.04800000      -2.27020000      -0.09330000        1 
H      -1.12420000      -1.49220000      -1.22120000        1 
H      -1.80730000       0.94570000      -0.80750000        1 
H      -2.33100000       0.52990000       0.87870000        1 
H      -1.09800000       1.82060000       0.60080000        1 
H       0.00580000      -0.26830000       1.38610000        1 
H       0.58470000       0.42680000       0.16230000        1 
H       4.37080000       1.28990000      -0.88350000        1 
