17
Properties=species:S:1:pos:R:3:Z:I:1 pbc="F F F"
O      -2.62320000      -1.56620000      -0.46380000        8 
C      -0.64800000      -0.51120000      -1.20460000        6 
C      -2.26800000       0.54700000       0.52230000        6 
C       2.36890000       0.71880000       0.64820000        6 
C      -1.90100000      -0.58380000      -0.38820000        6 
C       1.64910000      -0.50160000       0.10510000        6 
H       1.72230000       1.23280000       1.38950000        1 
H       2.59470000       1.41830000      -0.18340000        1 
H       3.31710000       0.41210000       1.13800000        1 
H       0.38420000      -0.38750000      -0.41060000        1 
H      -0.52330000      -1.43060000      -1.81580000        1 
H      -0.69450000       0.36660000      -1.88250000        1 
H      -1.46600000       0.69490000       1.27550000        1 
H      -3.22110000       0.33180000       1.05120000        1 
H      -2.38930000       1.47830000      -0.06950000        1 
H       1.41170000      -1.20280000       0.93280000        1 
H       2.28640000      -1.01680000      -0.64420000        1 
