25
Properties=species:S:1:pos:R:3:Z:I:1 pbc="F F F"
O      -1.09910000      -2.00160000      -1.06800000        8 
C      -0.96040000      -0.64740000      -0.73250000        6 
C      -1.96070000      -0.29430000       0.38430000        6 
C      -1.18400000       0.19240000      -1.99140000        6 
C      -1.71890000       1.09390000       0.97610000        6 
C       2.85970000      -0.71060000      -0.10370000        6 
C       1.44940000       1.01420000       1.07640000        6 
C       1.46150000      -0.33740000       0.37320000        6 
H       0.26590000      -0.42820000      -0.30710000        1 
H      -3.00260000      -0.35880000       0.00150000        1 
H      -1.85670000      -1.03820000       1.20390000        1 
H      -1.94610000       1.88460000       0.23160000        1 
H      -2.38690000       1.24290000       1.85050000        1 
H      -0.66630000       1.19480000       1.31580000        1 
H      -0.50510000      -0.15800000      -2.79740000        1 
H      -0.95470000       1.25990000      -1.79570000        1 
H      -2.23320000       0.09800000      -2.34450000        1 
H       3.55480000      -0.78850000       0.75930000        1 
H       3.23740000       0.05320000      -0.81580000        1 
H       2.82070000      -1.69060000      -0.62300000        1 
H       0.41270000       1.25420000       1.39180000        1 
H       2.10170000       0.98850000       1.97520000        1 
H       1.80230000       1.80820000       0.38490000        1 
H       1.07400000      -1.12260000       1.05760000        1 
H      -0.56540000      -2.50870000      -0.40280000        1 
