28
Properties=species:S:1:pos:R:3:Z:I:1 pbc="F F F"
O       0.38050000       1.34270000      -0.23880000        8 
C       2.04880000      -0.37810000       0.08090000        6 
C      -2.94460000       0.01490000       0.20720000        6 
C       1.18820000       0.72390000       0.72230000        6 
C       2.83970000      -1.13140000       1.15670000        6 
C       3.00320000       0.20640000      -0.96890000        6 
C      -2.91990000       1.05470000       1.32110000        6 
C      -1.66860000      -0.92380000      -1.75960000        6 
C      -1.71840000       0.16410000      -0.69380000        6 
H       1.37630000      -1.10660000      -0.42380000        1 
H      -3.87170000       0.14250000      -0.39310000        1 
H      -2.95190000      -0.99840000       0.66400000        1 
H       0.54250000       0.29130000       1.51820000        1 
H       1.83920000       1.49230000       1.19230000        1 
H      -2.00300000       0.93630000       1.93730000        1 
H      -2.94500000       2.07970000       0.89330000        1 
H      -3.80780000       0.92100000       1.97440000        1 
H       3.43610000      -1.94660000       0.69420000        1 
H       3.52790000      -0.44250000       1.69250000        1 
H       2.14500000      -1.58900000       1.89310000        1 
H       3.68900000       0.94840000      -0.50620000        1 
H       2.42890000       0.70420000      -1.77880000        1 
H       3.60920000      -0.60340000      -1.42840000        1 
H      -1.62340000      -1.92520000      -1.28210000        1 
H      -2.56440000      -0.86500000      -2.41380000        1 
H      -0.75970000      -0.78670000      -2.38150000        1 
H      -1.71750000       1.16350000      -1.18120000        1 
H      -0.55860000       0.51070000      -0.49750000        1 
