11
Properties=species:S:1:pos:R:3:Z:I:1 pbc="F F F"
O       2.92050000      -0.60600000       0.38620000        8 
C      -1.45130000       0.15520000      -0.53220000        6 
C      -0.46680000      -0.32050000       0.52000000        6 
C       2.08090000       0.22400000       0.08080000        6 
H      -1.49480000       1.26420000      -0.52660000        1 
H      -2.46140000      -0.25320000      -0.31760000        1 
H      -1.12090000      -0.19010000      -1.53390000        1 
H      -0.41100000      -1.42950000       0.51480000        1 
H      -0.78590000       0.02850000       1.52470000        1 
H       0.80780000      -0.10930000       0.04660000        1 
H       2.38300000       1.23660000      -0.16270000        1 
