25
Properties=species:S:1:pos:R:3:Z:I:1 pbc="F F F"
O      -0.56000000      -0.85590000      -1.59780000        8 
C       1.44730000      -0.05680000      -0.55300000        6 
C       2.66150000      -0.46800000       0.28740000        6 
C       0.52730000      -1.25080000      -0.81170000        6 
C       3.58040000       0.72220000       0.54710000        6 
C      -2.78000000      -0.67060000       0.98500000        6 
C      -2.56300000       1.55630000      -0.17700000        6 
C      -2.42670000       0.04490000      -0.31300000        6 
H       3.23660000      -1.25670000      -0.24500000        1 
H       2.32060000      -0.87850000       1.26300000        1 
H       0.87690000       0.73420000      -0.01830000        1 
H       1.79130000       0.35400000      -1.52770000        1 
H       0.16090000      -1.67220000       0.15030000        1 
H       1.08580000      -2.04450000      -1.35230000        1 
H       3.95580000       1.13650000      -0.41290000        1 
H       4.44920000       0.39510000       1.15640000        1 
H       3.03630000       1.51610000       1.10180000        1 
H      -2.65180000      -1.76440000       0.84740000        1 
H      -2.10720000      -0.33480000       1.80210000        1 
H      -3.83510000      -0.46480000       1.26530000        1 
H      -1.88650000       1.93110000       0.61980000        1 
H      -2.28140000       2.03780000      -1.13640000        1 
H      -3.61150000       1.82960000       0.06810000        1 
H      -3.07890000      -0.32060000      -1.13530000        1 
H      -1.34790000      -0.21930000      -0.81350000        1 
