24
Properties=species:S:1:pos:R:3:Z:I:1 pbc="F F F"
C      -2.18900000       0.83480000      -0.57680000        6 
C       1.46610000       0.53010000       1.00590000        6 
C      -1.03920000       0.10880000      -1.26540000        6 
C      -2.98770000      -0.11530000       0.30920000        6 
C       2.22830000       1.28410000      -0.08000000        6 
C       1.79910000      -1.86570000       0.20430000        6 
C       0.80260000      -0.73760000       0.45830000        6 
H      -2.86070000       1.27370000      -1.34580000        1 
H      -1.77910000       1.65880000       0.04570000        1 
H       2.14940000       0.28130000       1.84690000        1 
H       0.67110000       1.19900000       1.40020000        1 
H       3.10800000       0.69970000      -0.42070000        1 
H       2.59120000       2.25140000       0.32710000        1 
H       1.56350000       1.49050000      -0.94590000        1 
H      -0.20320000      -0.41930000      -0.33920000        1 
H      -1.42890000      -0.70350000      -1.91530000        1 
H      -0.46930000       0.82540000      -1.89370000        1 
H      -2.33590000      -0.54730000       1.09830000        1 
H      -3.81570000       0.44030000       0.79760000        1 
H      -3.42190000      -0.93720000      -0.29910000        1 
H       2.51670000      -1.58050000      -0.59190000        1 
H       2.35310000      -2.11200000       1.13500000        1 
H       1.24930000      -2.76900000      -0.13260000        1 
H       0.03210000      -1.09070000       1.17740000        1 
