15
Properties=species:S:1:pos:R:3:Z:I:1 pbc="F F F"
C       0.58210000      -0.80540000      -0.08640000        6 
C       1.83230000       0.01180000       0.23450000        6 
C      -1.05500000       1.10060000      -0.55290000        6 
C      -0.70750000      -0.09170000       0.33330000        6 
H       0.63800000      -1.76910000       0.46300000        1 
H       0.55410000      -1.03730000      -1.17290000        1 
H       1.86060000       0.93960000      -0.37380000        1 
H       2.73620000      -0.58760000      -0.00350000        1 
H       1.85690000       0.27580000       1.31320000        1 
H      -0.31690000       1.91800000      -0.41680000        1 
H      -1.08020000       0.79420000      -1.61980000        1 
H      -2.05850000       1.48140000      -0.27150000        1 
H      -0.67280000       0.20800000       1.40320000        1 
H      -2.45130000      -1.52640000       0.42640000        1 
H      -1.71810000      -0.91200000       0.32390000        1 
