13
Properties=species:S:1:pos:R:3:Z:I:1 pbc="F F F"
O       2.55140000      -0.34350000      -0.06070000        8 
C      -0.95720000      -1.21030000       0.23760000        6 
C      -0.50850000       1.25600000      -0.03270000        6 
C       0.03500000      -0.15350000      -0.23180000        6 
H      -1.90020000      -1.14170000      -0.34560000        1 
H      -1.17860000      -1.07420000       1.31720000        1 
H      -0.51650000      -2.21810000       0.09060000        1 
H      -1.43790000       1.39930000      -0.62420000        1 
H      -0.72200000       1.43520000       1.04220000        1 
H       0.24960000       1.99250000      -0.37100000        1 
H       0.28050000      -0.31560000      -1.30350000        1 
H       1.15370000      -0.13970000       0.04880000        1 
H       2.95080000       0.51370000       0.23310000        1 
