17
Properties=species:S:1:pos:R:3:Z:I:1 pbc="F F F"
O       1.72220000      -1.96240000      -0.62100000        8 
C      -1.17740000       1.05290000       0.96320000        6 
C      -2.00640000      -0.76970000      -0.56890000        6 
C       2.72530000       0.08590000      -0.03150000        6 
C      -0.88200000       0.21560000      -0.27510000        6 
C       1.55440000      -0.81480000      -0.24150000        6 
H      -2.10130000       1.65140000       0.81400000        1 
H      -1.30110000       0.39490000       1.84910000        1 
H      -0.32870000       1.74310000       1.15020000        1 
H      -1.74410000      -1.36870000      -1.46570000        1 
H      -2.95550000      -0.22650000      -0.76450000        1 
H      -2.14460000      -1.45960000       0.29020000        1 
H       3.39840000      -0.34620000       0.73850000        1 
H       2.37150000       1.08010000       0.31140000        1 
H       3.28230000       0.20650000      -0.98410000        1 
H      -0.72380000       0.88040000      -1.15150000        1 
H       0.31090000      -0.36280000      -0.01280000        1 
