23
Properties=species:S:1:pos:R:3:Z:I:1 pbc="F F F"
O       2.36620000      -0.87840000       1.43060000        8 
C      -2.11220000       0.09400000      -0.51420000        6 
C      -2.38750000       1.59120000      -0.44170000        6 
C      -0.84030000      -1.81720000       0.53790000        6 
C       1.15610000       0.79690000       0.30780000        6 
C       3.38040000      -0.21200000      -0.59160000        6 
C      -1.20950000      -0.34240000       0.64000000        6 
C       2.30680000      -0.15010000       0.45210000        6 
H      -1.61600000      -0.13180000      -1.48300000        1 
H      -3.07580000      -0.45870000      -0.46940000        1 
H      -3.02990000       1.89300000      -1.29570000        1 
H      -1.43470000       2.16030000      -0.49380000        1 
H      -2.91350000       1.84170000       0.50420000        1 
H      -1.75370000      -2.44800000       0.58040000        1 
H      -0.17640000      -2.08870000       1.38470000        1 
H      -0.29970000      -2.01130000      -0.41240000        1 
H       0.01380000       0.10760000       0.28910000        1 
H       1.23930000       1.38010000      -0.63370000        1 
H       1.14340000       1.50130000       1.16580000        1 
H       4.14890000      -0.96700000      -0.32020000        1 
H       3.86960000       0.78040000      -0.68230000        1 
H       2.93430000      -0.49060000      -1.56920000        1 
H      -1.70950000      -0.15010000       1.61440000        1 
