28
Properties=species:S:1:pos:R:3:Z:I:1 pbc="F F F"
O       0.78620000      -0.90160000      -0.00940000        8 
C       2.82760000       0.02840000       0.86720000        6 
C       3.25890000       1.01960000      -0.22660000        6 
C      -2.19530000       0.58890000      -0.16390000        6 
C       1.30680000      -0.09830000       1.00910000        6 
C       2.97820000       0.51140000      -1.64000000        6 
C      -3.54250000       0.61450000      -0.88390000        6 
C      -2.47890000      -1.56760000       1.17750000        6 
C      -1.69510000      -0.83690000       0.09150000        6 
H       2.75590000       1.99950000      -0.07630000        1 
H       4.35350000       1.18840000      -0.13060000        1 
H       3.27780000      -0.97150000       0.68190000        1 
H       3.23230000       0.39550000       1.83540000        1 
H      -2.27200000       1.14450000       0.79550000        1 
H      -1.44560000       1.10990000      -0.79650000        1 
H       1.07550000      -0.57030000       1.98850000        1 
H       0.82780000       0.90460000       0.98360000        1 
H      -4.33970000       0.19070000      -0.23840000        1 
H      -3.48730000       0.03680000      -1.83100000        1 
H      -3.81210000       1.66420000      -1.12530000        1 
H       1.88730000       0.49600000      -1.84090000        1 
H       3.39850000      -0.50720000      -1.77940000        1 
H       3.45250000       1.19280000      -2.37740000        1 
H      -2.50190000      -0.96420000       2.10930000        1 
H      -1.98070000      -2.53480000       1.39590000        1 
H      -3.51600000      -1.77350000       0.84060000        1 
H      -1.67320000      -1.43120000      -0.84770000        1 
H      -0.47880000      -0.92860000       0.19130000        1 
