28
Properties=species:S:1:pos:R:3:Z:I:1 pbc="F F F"
O       4.09500000      -0.75050000      -0.73580000        8 
C       2.69430000       1.10110000      -0.05640000        6 
C       1.38620000       0.52350000      -0.62170000        6 
C      -2.93790000       0.18070000       0.39510000        6 
C       3.71150000       0.03240000       0.36330000        6 
C       0.56560000      -0.22430000       0.42670000        6 
C      -2.62000000       1.67110000       0.39410000        6 
C      -2.15290000      -2.09100000      -0.38010000        6 
C      -1.91460000      -0.58720000      -0.44190000        6 
H       1.59640000      -0.14980000      -1.47970000        1 
H       0.76970000       1.36480000      -1.00500000        1 
H       2.46610000       1.74930000       0.81770000        1 
H       3.16000000       1.74610000      -0.83300000        1 
H      -2.91660000      -0.18880000       1.44330000        1 
H      -3.95800000       0.02300000      -0.01820000        1 
H       4.61500000       0.54450000       0.75650000        1 
H       3.31210000      -0.59620000       1.19130000        1 
H      -2.66640000       2.07510000      -0.63980000        1 
H      -3.36250000       2.21030000       1.01940000        1 
H      -1.60600000       1.84830000       0.81240000        1 
H      -0.63630000      -0.55460000      -0.10420000        1 
H       1.07760000      -1.15990000       0.73290000        1 
H       0.39510000       0.41600000       1.31820000        1 
H      -1.38330000      -2.60970000      -0.98860000        1 
H      -3.15780000      -2.33970000      -0.78300000        1 
H      -2.07530000      -2.44780000       0.66850000        1 
H      -1.94930000      -0.24760000      -1.50010000        1 
H       3.49220000      -1.53900000      -0.75190000        1 
