13
Properties=species:S:1:pos:R:3:Z:I:1 pbc="F F F"
C      -1.94060000       0.34430000       0.05450000        6 
C      -0.78260000      -0.08500000       0.93620000        6 
C       1.20320000      -0.37400000      -0.75400000        6 
C       2.49920000      -0.17270000      -0.53190000        6 
H      -2.74980000       0.77960000       0.67790000        1 
H      -2.33430000      -0.53490000      -0.49670000        1 
H      -1.59070000       1.10360000      -0.67560000        1 
H      -1.12270000      -0.85150000       1.66400000        1 
H      -0.37720000       0.79120000       1.48470000        1 
H       0.26290000       0.03550000       0.18840000        1 
H       0.87260000      -0.85690000      -1.66790000        1 
H       3.23600000      -0.48970000      -1.26280000        1 
H       2.82390000       0.31040000       0.38320000        1 
