18
Properties=species:S:1:pos:R:3:Z:I:1 pbc="F F F"
C       1.53840000      -0.84550000       0.18520000        6 
C       2.42090000       0.37820000       0.35370000        6 
C      -1.21350000       1.32110000      -0.63910000        6 
C      -1.97460000      -0.81510000       0.46260000        6 
C      -0.95690000      -0.17130000      -0.47090000        6 
H       0.31160000      -0.46390000      -0.24500000        1 
H       1.98820000      -1.53520000      -0.55980000        1 
H       1.43650000      -1.37380000       1.15650000        1 
H       2.51850000       0.90550000      -0.61820000        1 
H       3.42820000       0.07160000       0.70630000        1 
H       1.96720000       1.06680000       1.09690000        1 
H      -1.15280000       1.83280000       0.34460000        1 
H      -2.21620000       1.49330000      -1.08520000        1 
H      -0.44260000       1.75230000      -1.31100000        1 
H      -3.00030000      -0.70770000       0.04980000        1 
H      -1.92720000      -0.34080000       1.46560000        1 
H      -1.74200000      -1.89500000       0.57000000        1 
H      -0.98340000      -0.67310000      -1.46210000        1 
