28
Properties=species:S:1:pos:R:3:Z:I:1 pbc="F F F"
O       3.82410000       0.99090000      -0.72150000        8 
C       1.97540000      -0.20760000       0.28100000        6 
C      -2.52310000       0.81010000      -0.40780000        6 
C       3.39760000       0.35170000       0.45130000        6 
C       0.96450000       0.91220000       0.01180000        6 
C       1.92010000      -1.26330000      -0.82940000        6 
C      -3.89950000       0.74450000       0.25160000        6 
C      -1.66340000      -1.52200000       0.18580000        6 
C      -1.47400000      -0.01640000       0.34370000        6 
H       1.68680000      -0.70130000       1.23490000        1 
H      -2.18570000       1.86830000      -0.41930000        1 
H      -2.59550000       0.46750000      -1.46250000        1 
H       4.09420000      -0.48070000       0.69910000        1 
H       3.41120000       1.07410000       1.29830000        1 
H      -3.83530000       1.05640000       1.31580000        1 
H      -4.31380000      -0.28340000       0.19210000        1 
H      -4.59480000       1.43060000      -0.27650000        1 
H      -0.28550000       0.39390000      -0.05490000        1 
H       0.98810000       1.65680000       0.83590000        1 
H       1.18900000       1.42770000      -0.94660000        1 
H       2.63800000      -2.08330000      -0.61410000        1 
H       2.17140000      -0.81530000      -1.81470000        1 
H       0.90160000      -1.70300000      -0.88760000        1 
H      -0.79930000      -2.04630000       0.64380000        1 
H      -2.58980000      -1.85600000       0.69760000        1 
H      -1.71190000      -1.79440000      -0.88940000        1 
H      -1.43160000       0.26610000       1.41800000        1 
H       4.74100000       1.32230000      -0.53650000        1 
