17
Properties=species:S:1:pos:R:3:Z:I:1 pbc="F F F"
C      -1.37800000       0.03790000      -0.71180000        6 
C      -1.74390000      -1.17680000       0.13630000        6 
C      -0.02870000       1.37760000       0.98460000        6 
C      -0.00620000       0.60410000      -0.33120000        6 
C       2.58890000      -0.56220000      -0.31990000        6 
C       3.68340000      -1.03980000      -0.48460000        6 
H      -2.16330000       0.81890000      -0.61600000        1 
H      -1.34250000      -0.27990000      -1.77620000        1 
H      -1.90810000      -0.88280000       1.19370000        1 
H      -0.93820000      -1.94010000       0.08550000        1 
H      -2.68340000      -1.62660000      -0.24830000        1 
H      -0.27750000       0.70330000       1.82930000        1 
H      -0.76870000       2.20460000       0.93690000        1 
H       0.97650000       1.80960000       1.17100000        1 
H       0.35250000       1.27680000      -1.14010000        1 
H       0.99300000       0.13420000      -0.07980000        1 
H       4.64430000      -1.45910000      -0.62920000        1 
