16
Properties=species:S:1:pos:R:3:Z:I:1 pbc="F F F"
O      -1.22390000       2.18730000      -0.80870000        8 
C       0.93120000      -0.55080000       0.46200000        6 
C       2.01360000       0.49430000       0.22000000        6 
C      -1.51060000      -1.09980000       0.12490000        6 
C      -0.38610000      -0.11880000      -0.18280000        6 
H       0.78920000      -0.67150000       1.55780000        1 
H       1.25880000      -1.52380000       0.03520000        1 
H       2.19990000       0.61240000      -0.86880000        1 
H       1.70630000       1.47250000       0.64810000        1 
H       2.95730000       0.17240000       0.70870000        1 
H      -1.26530000      -2.10660000      -0.27540000        1 
H      -2.44850000      -0.74330000      -0.34940000        1 
H      -1.67120000      -1.16600000       1.22160000        1 
H      -0.26390000      -0.02540000      -1.28400000        1 
H      -0.88680000       0.93350000      -0.24200000        1 
H      -2.19990000       2.13360000      -0.96720000        1 
