16
Properties=species:S:1:pos:R:3:Z:I:1 pbc="F F F"
O      -1.69080000      -1.00970000      -1.02380000        8 
C       2.29930000       0.14750000       1.02320000        6 
C      -0.86140000      -1.08420000       0.11200000        6 
C      -2.21820000       0.29300000      -1.12010000        6 
C       1.17430000       0.67950000       0.15490000        6 
H       2.07100000       0.34640000       2.09100000        1 
H       2.40040000      -0.94730000       0.87160000        1 
H       3.25410000       0.64550000       0.75270000        1 
H       0.09370000      -0.21170000       0.05380000        1 
H      -1.45120000      -0.95150000       1.04620000        1 
H      -0.39700000      -2.09110000       0.14660000        1 
H      -2.82310000       0.55330000      -0.22260000        1 
H      -1.41170000       1.04340000      -1.27730000        1 
H      -2.89140000       0.33720000      -2.00070000        1 
H       1.39120000       0.47630000      -0.91500000        1 
H       1.06090000       1.77340000       0.30760000        1 
