12
Properties=species:S:1:pos:R:3:Z:I:1 pbc="F F F"
O      -2.90350000       1.82400000      -0.87950000        8 
C       1.83600000      -0.28170000      -0.45550000        6 
C       0.68450000      -0.07660000       0.51120000        6 
C      -1.89560000      -0.24190000       0.20090000        6 
C      -2.41250000       0.81750000      -0.35310000        6 
H       1.64280000       0.28540000      -1.38990000        1 
H       2.78260000       0.07550000       0.00200000        1 
H       1.92990000      -1.36060000      -0.69870000        1 
H       0.57840000       1.00200000       0.75270000        1 
H       0.86620000      -0.64820000       1.44570000        1 
H      -0.56960000      -0.40990000       0.21320000        1 
H      -2.53920000      -0.98540000       0.65090000        1 
