25
Properties=species:S:1:pos:R:3:Z:I:1 pbc="F F F"
O      -3.64590000      -1.29170000       0.71070000        8 
C      -2.50240000       0.20520000      -0.80120000        6 
C      -1.16010000       0.22840000      -0.05860000        6 
C      -3.68120000      -0.00460000       0.15370000        6 
C      -0.00580000       0.50280000      -1.01620000        6 
C       2.33400000      -0.46380000       1.54590000        6 
C       3.43260000      -0.19050000      -0.70690000        6 
C       2.34140000       0.30820000       0.23230000        6 
H      -1.17350000       1.02090000       0.72060000        1 
H      -0.98280000      -0.75050000       0.43600000        1 
H      -2.64610000       1.17340000      -1.32910000        1 
H      -2.49860000      -0.60610000      -1.56190000        1 
H      -3.68690000       0.77970000       0.94620000        1 
H      -4.62550000       0.09990000      -0.42140000        1 
H       1.15830000       0.50860000      -0.32310000        1 
H       0.04680000      -0.28770000      -1.79490000        1 
H      -0.13470000       1.49250000      -1.50420000        1 
H       1.51640000      -0.08110000       2.19150000        1 
H       3.30150000      -0.33400000       2.07620000        1 
H       2.15850000      -1.54330000       1.35400000        1 
H       3.39220000       0.38540000      -1.65470000        1 
H       3.27630000      -1.26530000      -0.93820000        1 
H       4.43340000      -0.05250000      -0.24480000        1 
H       2.48170000       1.39240000       0.43220000        1 
H      -3.12960000      -1.22620000       1.55600000        1 
