14
Properties=species:S:1:pos:R:3:Z:I:1 pbc="F F F"
O       2.75940000       0.28050000       1.57130000        8 
C      -2.09060000       0.10020000       0.43860000        6 
C       1.47570000       0.46990000      -0.40100000        6 
C      -1.06940000      -0.32220000      -0.60130000        6 
C       2.26420000      -0.29190000       0.61380000        6 
H      -1.77090000      -0.25590000       1.44000000        1 
H      -3.08250000      -0.33450000       0.19350000        1 
H      -2.16880000       1.20720000       0.45500000        1 
H       0.25900000      -0.00790000      -0.45100000        1 
H       1.43170000       1.54840000      -0.13790000        1 
H       1.95200000       0.35890000      -1.39710000        1 
H      -0.97900000      -1.42870000      -0.61780000        1 
H      -1.37790000       0.03820000      -1.60530000        1 
H       2.39710000      -1.36230000       0.49920000        1 
