24
Properties=species:S:1:pos:R:3:Z:I:1 pbc="F F F"
C      -1.81810000       0.02600000       0.61890000        6 
C      -0.52900000       0.72470000       1.05910000        6 
C      -1.55190000      -1.45410000       0.32660000        6 
C      -2.41010000       0.72030000      -0.61160000        6 
C       2.45250000       1.22820000      -0.50460000        6 
C       2.01520000      -1.22240000      -0.10450000        6 
C       1.42040000       0.10810000      -0.54890000        6 
H      -2.55540000       0.09310000       1.44910000        1 
H       0.39850000       0.66540000       0.07330000        1 
H      -0.11950000       0.23690000       1.96940000        1 
H      -0.73260000       1.79010000       1.29910000        1 
H      -0.81660000      -1.56580000      -0.49920000        1 
H      -1.15300000      -1.95760000       1.23300000        1 
H      -2.49630000      -1.96260000       0.03720000        1 
H      -1.70160000       0.67660000      -1.46680000        1 
H      -2.63000000       1.78470000      -0.38180000        1 
H      -3.36100000       0.22800000      -0.90800000        1 
H       1.97500000       2.17950000      -0.81880000        1 
H       2.84000000       1.35040000       0.52880000        1 
H       3.29550000       1.00470000      -1.19270000        1 
H       1.22840000      -2.00450000      -0.13580000        1 
H       2.84500000      -1.52010000      -0.78050000        1 
H       2.39510000      -1.14300000       0.93590000        1 
H       1.00970000       0.01350000      -1.57720000        1 
