17
Properties=species:S:1:pos:R:3:Z:I:1 pbc="F F F"
O       3.09360000      -1.29430000       0.20830000        8 
C      -0.69560000      -0.89100000      -0.20540000        6 
C      -1.23790000      -0.81900000       1.21920000        6 
C      -0.71120000       1.58300000      -0.81530000        6 
C       0.14100000       0.34300000      -0.55790000        6 
C       2.60180000      -0.17910000       0.24610000        6 
H      -0.04570000      -1.78900000      -0.28440000        1 
H      -1.53390000      -1.01340000      -0.92540000        1 
H      -0.40980000      -0.64510000       1.93920000        1 
H      -1.98680000      -0.00560000       1.31410000        1 
H      -1.73430000      -1.77890000       1.47470000        1 
H      -1.44360000       1.38970000      -1.62770000        1 
H      -0.05190000       2.42140000      -1.12220000        1 
H      -1.24860000       1.88530000       0.10660000        1 
H       0.75090000       0.12920000      -1.46220000        1 
H       1.27980000      -0.02210000       0.07160000        1 
H       3.23210000       0.68590000       0.42060000        1 
