19
Properties=species:S:1:pos:R:3:Z:I:1 pbc="F F F"
C      -0.94220000      -0.16990000      -0.62040000        6 
C      -1.19270000      -1.67360000      -0.60140000        6 
C       2.69010000      -0.25690000       0.77770000        6 
C      -1.89650000       0.55590000       0.28680000        6 
C       1.66700000       0.32530000      -0.17990000        6 
C      -1.83420000       1.88220000       0.42280000        6 
H       0.22750000       0.05000000      -0.24880000        1 
H      -1.06230000       0.20550000      -1.65980000        1 
H      -1.05480000      -2.07280000       0.42610000        1 
H      -0.47100000      -2.17740000      -1.27790000        1 
H      -2.22390000      -1.89760000      -0.94920000        1 
H       3.67440000       0.23350000       0.62400000        1 
H       2.79080000      -1.34730000       0.59670000        1 
H       2.35690000      -0.09190000       1.82350000        1 
H      -2.64900000       0.00500000       0.84520000        1 
H       1.55390000       1.41500000       0.00090000        1 
H       1.98900000       0.15630000      -1.22900000        1 
H      -2.52820000       2.39410000       1.08150000        1 
H      -1.09470000       2.46460000      -0.11880000        1 
