20
Properties=species:S:1:pos:R:3:Z:I:1 pbc="F F F"
O       2.99750000       0.16430000      -1.32930000        8 
C      -2.40020000       0.86340000       0.27050000        6 
C      -1.35900000      -1.39000000      -0.17080000        6 
C       1.10650000       1.19610000      -0.37030000        6 
C       2.45030000      -0.70630000       0.78770000        6 
C      -1.30890000       0.10270000      -0.47240000        6 
C       2.23920000       0.21580000      -0.37330000        6 
H      -3.40370000       0.50360000      -0.04200000        1 
H      -2.31760000       1.94510000       0.03650000        1 
H      -2.28260000       0.72780000       1.36630000        1 
H      -1.22320000      -1.56510000       0.91730000        1 
H      -2.33100000      -1.81800000      -0.49670000        1 
H      -0.53990000      -1.90220000      -0.71710000        1 
H      -0.04980000       0.53920000      -0.26170000        1 
H       1.21560000       1.88930000       0.48990000        1 
H       1.09670000       1.78880000      -1.31000000        1 
H       3.45380000      -0.52780000       1.22750000        1 
H       2.38480000      -1.75970000       0.44340000        1 
H       1.68110000      -0.53760000       1.57100000        1 
H      -1.40950000       0.27050000      -1.56640000        1 
