22
Properties=species:S:1:pos:R:3:Z:I:1 pbc="F F F"
O       1.87110000      -1.46860000      -0.25410000        8 
C      -1.65300000      -0.49560000      -0.40440000        6 
C       2.36150000      -0.22750000       0.16790000        6 
C      -1.95640000      -1.19820000       0.91350000        6 
C       1.39550000       0.38660000       1.16730000        6 
C      -0.46130000       1.46180000      -1.46560000        6 
C      -0.86070000       0.78870000      -0.15830000        6 
H      -1.06140000      -1.18240000      -1.04790000        1 
H      -2.60800000      -0.25650000      -0.92100000        1 
H       3.35590000      -0.35630000       0.65050000        1 
H       2.46370000       0.45520000      -0.70440000        1 
H      -1.01170000      -1.45250000       1.44010000        1 
H      -2.57580000      -0.54560000       1.56530000        1 
H      -2.51690000      -2.13590000       0.71460000        1 
H       0.18200000       0.55100000       0.58770000        1 
H       1.77570000       1.37600000       1.49830000        1 
H       1.29160000      -0.27550000       2.05300000        1 
H       0.17220000       0.77860000      -2.06970000        1 
H      -1.36500000       1.74140000      -2.04800000        1 
H       0.12090000       2.37990000      -1.24260000        1 
H      -1.45610000       1.49660000       0.45870000        1 
H       2.53630000      -1.82090000      -0.90080000        1 
