20
Properties=species:S:1:pos:R:3:Z:I:1 pbc="F F F"
O       2.33910000      -0.85820000      -0.62910000        8 
O       1.71700000       0.18180000      -1.15160000        8 
C      -1.25630000      -0.00370000       0.97720000        6 
C      -1.79060000      -1.37580000       0.57630000        6 
C      -1.46140000       1.22310000      -1.24680000        6 
C       3.23590000      -0.33540000       0.31290000        6 
C      -0.51690000       0.67790000      -0.17860000        6 
H      -0.54180000      -0.14130000       1.81720000        1 
H      -2.08900000       0.63720000       1.34030000        1 
H      -0.97190000      -2.00360000       0.16420000        1 
H      -2.59730000      -1.27800000      -0.17940000        1 
H      -2.21190000      -1.88370000       1.46940000        1 
H      -2.18400000       1.93780000      -0.79870000        1 
H      -2.01220000       0.39600000      -1.73940000        1 
H      -0.86900000       1.75390000      -2.02090000        1 
H       3.97020000       0.34050000      -0.17860000        1 
H       3.79340000      -1.17220000       0.78170000        1 
H       2.68940000       0.21080000       1.11320000        1 
H       0.09960000       1.51280000       0.21920000        1 
H       0.65770000       0.18020000      -0.64850000        1 
