25
Properties=species:S:1:pos:R:3:Z:I:1 pbc="F F F"
O       1.33650000       1.39980000       0.61490000        8 
C       1.60390000       0.02310000       0.68250000        6 
C       0.64780000      -0.74130000      -0.24990000        6 
C       3.07730000      -0.24780000       0.35560000        6 
C       0.73490000      -0.30480000      -1.71320000        6 
C      -2.65350000       1.30500000       0.85970000        6 
C      -2.14650000      -0.70970000      -0.56880000        6 
C      -1.65790000       0.19160000       0.55840000        6 
H       1.40730000      -0.34130000       1.71740000        1 
H      -0.59380000      -0.53990000       0.17010000        1 
H       0.85030000      -1.83250000      -0.18200000        1 
H       1.72230000      -0.56920000      -2.14520000        1 
H       0.56710000       0.78840000      -1.80740000        1 
H      -0.04950000      -0.83030000      -2.29680000        1 
H       3.35640000       0.20580000      -0.61830000        1 
H       3.27250000      -1.34080000       0.32210000        1 
H       3.72210000       0.19750000       1.14260000        1 
H      -3.62540000       0.87690000       1.18590000        1 
H      -2.80950000       1.93310000      -0.04260000        1 
H      -2.25250000       1.94560000       1.67240000        1 
H      -2.29350000      -0.11680000      -1.49610000        1 
H      -3.10290000      -1.19880000      -0.28590000        1 
H      -1.38670000      -1.49420000      -0.76650000        1 
H      -1.47820000      -0.41220000       1.47380000        1 
H       1.75150000       1.81290000       1.41690000        1 
