14
Properties=species:S:1:pos:R:3:Z:I:1 pbc="F F F"
O      -1.53250000       0.02430000      -0.22790000        8 
C       1.95660000       0.32790000       0.60100000        6 
C      -2.68170000       0.50620000       0.39670000        6 
C       1.82220000      -0.56940000      -0.58870000        6 
C       0.62100000      -0.89890000      -1.06600000        6 
H       3.03090000       0.47800000       0.83700000        1 
H       1.45640000      -0.13050000       1.48030000        1 
H       1.49500000       1.31480000       0.38590000        1 
H      -3.20970000       1.20240000      -0.28680000        1 
H      -3.34970000      -0.34310000       0.64790000        1 
H      -2.40020000       1.04270000       1.32600000        1 
H       2.71510000      -0.95760000      -1.06980000        1 
H      -0.46170000      -0.44600000      -0.50600000        1 
H       0.53820000      -1.55070000      -1.92970000        1 
