10
Properties=species:S:1:pos:R:3:Z:I:1 pbc="F F F"
O      -0.70920000      -0.00550000      -0.45160000        8 
O       3.81370000       0.42050000      -0.41270000        8 
C      -2.07450000       0.18220000      -0.24270000        6 
C       1.55490000      -0.35070000       0.45580000        6 
C       2.71320000       0.04480000       0.01050000        6 
H      -2.64530000      -0.55600000      -0.84270000        1 
H      -2.35820000       1.20900000      -0.55240000        1 
H      -2.30660000       0.04300000       0.83320000        1 
H       0.51430000      -0.02850000      -0.14560000        1 
H       1.49760000      -0.95890000       1.34810000        1 
