12
Properties=species:S:1:pos:R:3:Z:I:1 pbc="F F F"
O       1.13470000      -0.43240000      -0.05420000        8 
O      -2.92310000       1.07750000       0.66630000        8 
C      -1.33300000      -0.60530000       0.20410000        6 
C       2.40290000       0.14510000      -0.08890000        6 
C      -2.15800000       0.58900000      -0.14950000        6 
H      -0.15460000      -0.32830000       0.09170000        1 
H      -1.53210000      -0.92680000       1.24880000        1 
H      -1.57840000      -1.43990000      -0.48490000        1 
H       2.78810000       0.12910000      -1.12910000        1 
H       2.34130000       1.19420000       0.26650000        1 
H       3.08840000      -0.42840000       0.56830000        1 
H      -2.07620000       1.02610000      -1.13910000        1 
