8
Properties=species:S:1:pos:R:3:Z:I:1 pbc="F F F"
O       2.31100000      -0.27710000      -0.28510000        8 
O      -0.03550000      -0.56810000       0.05520000        8 
C      -1.25130000       0.10820000      -0.03080000        6 
H      -1.08020000       1.19560000       0.10680000        1 
H      -1.93670000      -0.26130000       0.75940000        1 
H      -1.70470000      -0.07160000      -1.02730000        1 
H       1.06210000      -0.47380000       0.01080000        1 
H       2.63540000       0.34810000       0.41100000        1 
