12
Properties=species:S:1:pos:R:3:Z:I:1 pbc="F F F"
O      -3.11360000       0.91010000      -0.07720000        8 
C      -1.31590000      -0.88840000       0.26940000        6 
C       2.60330000       0.32400000      -0.21920000        6 
C       0.07190000      -0.45910000       0.09640000        6 
C       1.21550000      -0.10530000      -0.04610000        6 
H      -2.00620000       0.03270000       0.26280000        1 
H      -1.42050000      -1.42170000       1.23660000        1 
H      -1.59910000      -1.56840000      -0.56020000        1 
H       3.25230000      -0.56610000      -0.35090000        1 
H       2.68070000       0.97370000      -1.11510000        1 
H       2.92990000       0.89030000       0.67730000        1 
H      -3.29840000       1.87810000      -0.17380000        1 
