10
Properties=species:S:1:pos:R:3:Z:I:1 pbc="F F F"
O       0.67720000      -0.01470000      -0.57940000        8 
O      -0.36760000      -1.33060000       0.99470000        8 
O       1.84510000      -0.65270000      -0.42660000        8 
C      -1.73110000       0.33820000      -0.02150000        6 
C      -0.44080000      -0.38550000       0.16440000        6 
H      -1.61730000       1.13540000      -0.78590000        1 
H      -2.04170000       0.80030000       0.93880000        1 
H      -2.51380000      -0.37410000      -0.35640000        1 
H       3.35440000       0.62860000       0.18150000        1 
H       2.83560000      -0.14490000      -0.10960000        1 
