23
Properties=species:S:1:pos:R:3:Z:I:1 pbc="F F F"
O      -2.72000000      -0.38070000       1.01800000        8 
O       1.87440000       0.50400000       0.74390000        8 
O       2.79470000      -1.60620000       0.77410000        8 
O       0.64200000       0.03630000       0.98190000        8 
C      -1.67330000      -0.46910000       0.08880000        6 
C      -1.85600000       0.59740000      -1.00050000        6 
C      -1.65440000      -1.86910000      -0.52610000        6 
C      -1.75460000       2.00920000      -0.42750000        6 
C       4.31960000       0.18730000       0.37690000        6 
C       2.95920000      -0.36340000       0.64250000        6 
H      -0.50800000      -0.26340000       0.69640000        1 
H      -1.06720000       0.47650000      -1.77480000        1 
H      -2.84680000       0.47300000      -1.49010000        1 
H      -2.55790000       2.18530000       0.31900000        1 
H      -1.86650000       2.75050000      -1.24650000        1 
H      -0.76540000       2.16080000       0.05450000        1 
H      -2.61250000      -2.07790000      -1.04870000        1 
H      -0.81630000      -1.95890000      -1.24930000        1 
H      -1.50920000      -2.62690000       0.27230000        1 
H       4.31500000       0.73520000      -0.58820000        1 
H       5.07020000      -0.63000000       0.32510000        1 
H       4.60160000       0.88580000       1.19190000        1 
H      -2.36850000      -0.75590000       1.86630000        1 
