14
Properties=species:S:1:pos:R:3:Z:I:1 pbc="F F F"
O       2.95780000       0.12890000      -1.19980000        8 
O      -0.63320000       0.21760000       0.68090000        8 
O      -1.54920000      -1.83870000       0.19720000        8 
O       0.51740000      -0.32530000       1.10020000        8 
C      -2.94790000       0.04020000      -0.23910000        6 
C       2.66390000       0.58400000       0.08800000        6 
C      -1.67560000      -0.58510000       0.22310000        6 
H      -2.88740000       1.14510000      -0.14870000        1 
H      -3.79160000      -0.32730000       0.38170000        1 
H      -3.13040000      -0.22590000      -1.30120000        1 
H       1.51410000       0.05250000       0.50950000        1 
H       3.48280000       0.30550000       0.78560000        1 
H       2.56550000       1.68890000       0.07150000        1 
H       2.91380000      -0.86050000      -1.14900000        1 
