15
Properties=species:S:1:pos:R:3:Z:I:1 pbc="F F F"
O      -2.76900000      -0.30320000      -0.89340000        8 
O       1.26390000      -0.65140000      -1.05550000        8 
O      -2.07370000      -1.33060000      -0.44350000        8 
O       0.85570000      -0.59100000       1.20960000        8 
O       0.11340000      -1.28940000      -1.30790000        8 
C       2.90290000       0.40380000       0.50520000        6 
C      -2.64950000       0.69710000       0.08130000        6 
C       1.61740000      -0.30620000       0.24690000        6 
H       3.53890000      -0.20840000       1.17830000        1 
H       2.69840000       1.38400000       0.98440000        1 
H       3.44560000       0.57410000      -0.44830000        1 
H      -3.22390000       1.58810000      -0.24570000        1 
H      -1.58550000       0.99580000       0.20800000        1 
H      -3.06760000       0.34990000       1.05190000        1 
H      -1.06710000      -1.31270000      -1.07130000        1 
