13
Properties=species:S:1:pos:R:3:Z:I:1 pbc="F F F"
O      -0.45730000      -0.61740000       0.43040000        8 
O      -1.68200000      -0.62480000      -1.51910000        8 
O       0.58860000      -1.21780000      -0.15260000        8 
O       3.70880000       1.70190000       1.02600000        8 
C      -2.75690000       0.34320000       0.38020000        6 
C      -1.60870000      -0.32590000      -0.29670000        6 
C       2.88700000      -0.21580000      -0.42260000        6 
C       3.30840000       0.76760000       0.32020000        6 
H      -3.59280000       0.50470000      -0.33340000        1 
H      -2.42920000       1.32500000       0.78080000        1 
H      -3.11420000      -0.29190000       1.21730000        1 
H       1.60160000      -0.68680000      -0.27640000        1 
H       3.54670000      -0.66210000      -1.15400000        1 
