23
Properties=species:S:1:pos:R:3:Z:I:1 pbc="F F F"
O      -2.54240000       1.91760000       2.45810000        8 
O       1.95150000      -0.38290000      -0.49510000        8 
O       3.20170000       1.37360000      -1.30310000        8 
O       0.80440000       0.29820000      -0.61570000        8 
C      -2.26010000       0.45220000       0.57090000        6 
C      -1.40220000      -0.67870000      -0.00390000        6 
C      -1.72950000       0.90350000       1.93330000        6 
C      -1.91720000      -1.12410000      -1.36830000        6 
C       4.43120000      -0.58040000      -0.71380000        6 
C       3.16610000       0.19580000      -0.85610000        6 
H      -0.13750000      -0.25670000      -0.13850000        1 
H      -1.41380000      -1.54920000       0.68800000        1 
H      -2.24860000       1.31650000      -0.12860000        1 
H      -3.30980000       0.10300000       0.68610000        1 
H      -1.73990000       0.04510000       2.63850000        1 
H      -0.67830000       1.26110000       1.84110000        1 
H      -1.88700000      -0.27650000      -2.08530000        1 
H      -1.27330000      -1.94040000      -1.75720000        1 
H      -2.95920000      -1.50000000      -1.28470000        1 
H       4.21740000      -1.59170000      -0.30840000        1 
H       4.91890000      -0.68460000      -1.70550000        1 
H       5.11800000      -0.05120000      -0.02060000        1 
H      -2.31030000       2.74970000       1.96860000        1 
