23
Properties=species:S:1:pos:R:3:Z:I:1 pbc="F F F"
O      -1.35040000       0.40680000       1.73960000        8 
O       2.43580000      -0.41340000       0.01820000        8 
O       3.68510000       1.47310000      -0.40790000        8 
O       1.28820000       0.20050000      -0.29890000        8 
C      -2.02620000       0.10360000      -0.57730000        6 
C      -1.07340000       0.78900000       0.41740000        6 
C      -3.47980000       0.54130000      -0.35920000        6 
C      -1.90010000      -1.42270000      -0.50470000        6 
C       4.91580000      -0.43670000       0.30990000        6 
C       3.65020000       0.26600000      -0.04750000        6 
H      -1.72600000       0.42080000      -1.60020000        1 
H       0.17420000       0.43670000       0.13000000        1 
H      -1.13140000       1.89660000       0.30340000        1 
H      -4.12930000       0.10970000      -1.15050000        1 
H      -3.85330000       0.20010000       0.62990000        1 
H      -3.55930000       1.64800000      -0.41270000        1 
H      -0.84880000      -1.72980000      -0.69030000        1 
H      -2.53990000      -1.89510000      -1.28040000        1 
H      -2.21390000      -1.79880000       0.49260000        1 
H       4.70260000      -1.48630000       0.60230000        1 
H       5.40400000       0.08310000       1.16060000        1 
H       5.60180000      -0.43710000      -0.56280000        1 
H      -2.02590000       1.04480000       2.08860000        1 
