23
Properties=species:S:1:pos:R:3:Z:I:1 pbc="F F F"
O      -1.63210000       1.39640000       1.24790000        8 
O       2.49180000      -1.10180000      -0.46300000        8 
O       2.40850000       0.03600000       1.53680000        8 
O       1.21170000      -1.48480000      -0.36870000        8 
C      -1.99460000      -0.35270000      -0.38490000        6 
C      -1.87560000       0.02350000       1.10070000        6 
C      -0.68920000      -0.06510000      -1.13400000        6 
C      -3.17460000       0.36670000      -1.05010000        6 
C       4.50470000       0.09370000       0.40580000        6 
C       3.07810000      -0.32150000       0.53090000        6 
H      -2.18420000      -1.44710000      -0.44350000        1 
H      -1.04550000      -0.55630000       1.56350000        1 
H      -2.81840000      -0.24840000       1.62670000        1 
H       0.34580000      -0.73300000      -0.53740000        1 
H      -0.46350000       1.02290000      -1.13490000        1 
H      -0.76730000      -0.41440000      -2.18570000        1 
H      -3.28290000       0.02830000      -2.10270000        1 
H      -3.02200000       1.46720000      -1.04380000        1 
H      -4.11830000       0.13160000      -0.51310000        1 
H       5.08470000      -0.29850000       1.26720000        1 
H       4.93960000      -0.30580000      -0.53440000        1 
H       4.57130000       1.20170000       0.39220000        1 
H      -1.56830000       1.56150000       2.22440000        1 
