15
Properties=species:S:1:pos:R:3:Z:I:1 pbc="F F F"
O      -1.09690000      -0.64070000       0.58220000        8 
O      -2.00360000      -0.23940000      -1.49560000        8 
O      -0.27510000      -1.58640000       0.10840000        8 
C      -2.87560000       1.08140000       0.29170000        6 
C       2.23210000      -1.29700000      -0.04570000        6 
C      -1.97270000       0.03320000      -0.26540000        6 
C       2.69640000       0.08970000      -0.09130000        6 
C       3.07850000       1.23240000      -0.12880000        6 
H      -3.50750000       1.52070000      -0.50940000        1 
H      -3.53310000       0.63100000       1.06410000        1 
H      -2.26730000       1.88620000       0.75420000        1 
H       0.88970000      -1.31940000      -0.04750000        1 
H       2.61220000      -1.84400000      -0.93290000        1 
H       2.60870000      -1.78330000       0.87770000        1 
H       3.41410000       2.23550000      -0.16180000        1 
