20
Properties=species:S:1:pos:R:3:Z:I:1 pbc="F F F"
O       0.12110000      -0.93130000      -0.44220000        8 
O       2.17740000      -0.33980000       0.36200000        8 
C      -0.99280000      -0.10060000      -0.23090000        6 
C      -2.21240000      -0.75680000      -0.89330000        6 
C      -1.24710000       0.05120000       1.27900000        6 
C      -0.74030000       1.27690000      -0.86840000        6 
C       3.56520000      -0.29280000       0.48240000        6 
H      -3.12200000      -0.13360000      -0.75220000        1 
H      -2.39820000      -1.75980000      -0.45210000        1 
H      -2.03690000      -0.88590000      -1.98310000        1 
H      -0.38060000       0.53920000       1.77460000        1 
H      -2.15080000       0.67110000       1.46440000        1 
H      -1.39810000      -0.94570000       1.74620000        1 
H      -0.52520000       1.16570000      -1.95290000        1 
H      -1.62880000       1.93380000      -0.74790000        1 
H       0.13040000       1.77530000      -0.39100000        1 
H       3.87260000      -0.80040000       1.41970000        1 
H       3.89850000       0.76510000       0.50840000        1 
H       4.02930000      -0.80540000      -0.38520000        1 
H       1.03880000      -0.42610000       0.06270000        1 
