16
Properties=species:S:1:pos:R:3:Z:I:1 pbc="F F F"
O       2.17680000      -0.10900000       1.08010000        8 
O       3.46370000      -0.28700000       1.29010000        8 
C      -0.03170000       0.03620000      -0.04930000        6 
C      -0.92530000      -0.19660000       1.17260000        6 
C      -0.35210000       1.38270000      -0.70520000        6 
C      -0.18490000      -1.10660000      -1.05730000        6 
H       1.21690000       0.06300000       0.35440000        1 
H      -0.77830000       0.61860000       1.91250000        1 
H      -0.65900000      -1.15770000       1.66120000        1 
H      -1.99620000      -0.22670000       0.87700000        1 
H       0.32650000       1.55730000      -1.56690000        1 
H      -0.20180000       2.20660000       0.02420000        1 
H      -1.40380000       1.40550000      -1.06370000        1 
H       0.08560000      -2.07290000      -0.58110000        1 
H      -1.23100000      -1.16730000      -1.42760000        1 
H       0.49460000      -0.94600000      -1.92100000        1 
