20
Properties=species:S:1:pos:R:3:Z:I:1 pbc="F F F"
O      -0.35820000       1.51750000      -1.19610000        8 
O       2.30220000       0.07640000       0.13750000        8 
C      -1.09720000      -0.27210000       0.27720000        6 
C      -0.03680000       0.79990000      -0.03300000        6 
C      -1.21870000      -1.28300000      -0.86960000        6 
C      -2.45920000       0.35780000       0.59380000        6 
C       3.63600000      -0.26260000       0.35820000        6 
H      -0.76090000      -0.82430000       1.18240000        1 
H       1.02050000       0.26690000      -0.19710000        1 
H       0.07990000       1.48650000       0.83770000        1 
H      -1.57920000      -0.78820000      -1.79680000        1 
H      -0.23260000      -1.75240000      -1.07270000        1 
H      -1.93380000      -2.08730000      -0.59440000        1 
H      -2.87300000       0.87780000      -0.29650000        1 
H      -2.36020000       1.08840000       1.42470000        1 
H      -3.17740000      -0.42880000       0.90930000        1 
H       3.79040000      -1.33390000       0.11480000        1 
H       4.28780000       0.36100000      -0.28750000        1 
H       3.89150000      -0.08480000       1.42310000        1 
H      -0.92110000       2.28520000      -0.91510000        1 
