17
Properties=species:S:1:pos:R:3:Z:I:1 pbc="F F F"
O      -1.63270000      -0.72680000      -1.08110000        8 
O       2.69290000       0.00510000       0.73620000        8 
O       3.65660000       0.89170000       0.60600000        8 
C      -0.64940000      -0.19230000      -0.22750000        6 
C       0.74000000      -0.70470000      -0.64340000        6 
C      -0.95380000      -0.65590000       1.20330000        6 
C      -0.68380000       1.34560000      -0.28660000        6 
H       1.69660000      -0.23080000       0.21320000        1 
H       0.76330000      -1.81560000      -0.62600000        1 
H       0.98970000      -0.36710000      -1.67210000        1 
H      -1.95990000      -0.30330000       1.51720000        1 
H      -0.94380000      -1.76580000       1.26000000        1 
H      -0.20050000      -0.25790000       1.91730000        1 
H      -0.45190000       1.70180000      -1.31330000        1 
H      -1.69310000       1.71890000      -0.00950000        1 
H       0.06140000       1.78270000       0.41270000        1 
H      -1.43160000      -0.42560000      -2.00630000        1 
