29
Properties=species:S:1:pos:R:3:Z:I:1 pbc="F F F"
O      -0.86730000       0.41210000       0.59390000        8 
O       0.31810000       0.03510000       0.15460000        8 
C      -3.20030000       0.48110000      -0.00330000        6 
C       2.72670000      -0.47960000      -0.39800000        6 
C       3.65710000       0.28410000       0.54850000        6 
C      -1.77520000       0.09050000      -0.42760000        6 
C      -3.65210000      -0.32220000       1.22380000        6 
C      -4.18100000       0.27380000      -1.16370000        6 
C       2.84960000      -1.98600000      -0.19640000        6 
C       3.51980000       1.79040000       0.35210000        6 
H      -3.20600000       1.56140000       0.26350000        1 
H       1.45760000      -0.11690000      -0.16710000        1 
H       2.97920000      -0.23470000      -1.45290000        1 
H       4.71210000      -0.01060000       0.35770000        1 
H       3.40460000       0.03480000       1.60200000        1 
H      -1.50570000       0.65080000      -1.35230000        1 
H      -1.73810000      -1.00180000      -0.64680000        1 
H      -2.97450000      -0.13070000       2.08270000        1 
H      -4.67760000      -0.01810000       1.52390000        1 
H      -3.65200000      -1.41120000       1.00200000        1 
H      -4.20700000      -0.79440000      -1.46950000        1 
H      -5.20380000       0.58560000      -0.86180000        1 
H      -3.87800000       0.88980000      -2.03710000        1 
H       2.57360000      -2.25770000       0.84450000        1 
H       2.16180000      -2.50890000      -0.89340000        1 
H       3.88880000      -2.32040000      -0.40190000        1 
H       4.20270000       2.31980000       1.04950000        1 
H       2.47790000       2.11390000       0.56170000        1 
H       3.78880000       2.07010000      -0.68880000        1 
