17
Properties=species:S:1:pos:R:3:Z:I:1 pbc="F F F"
O       0.83840000      -0.96250000       1.81430000        8 
O       2.36500000      -0.89920000      -1.15950000        8 
C      -0.59700000       0.33800000       0.35590000        6 
C       0.83700000      -0.09490000       0.71220000        6 
C      -1.45650000      -0.86980000      -0.03970000        6 
C      -0.57650000       1.36970000      -0.77780000        6 
H      -1.05600000       0.81790000       1.24860000        1 
H       1.30940000      -0.62970000      -0.17200000        1 
H       1.46370000       0.79870000       0.93670000        1 
H      -2.48930000      -0.54110000      -0.28390000        1 
H      -1.02580000      -1.38510000      -0.92510000        1 
H      -1.51840000      -1.59220000       0.80160000        1 
H      -0.12320000       0.93590000      -1.69520000        1 
H      -1.61010000       1.70330000      -1.01160000        1 
H       0.01210000       2.26150000      -0.47400000        1 
H       0.66330000      -0.40370000       2.61600000        1 
H       2.96380000      -0.84680000      -1.94640000        1 
