21
Properties=species:S:1:pos:R:3:Z:I:1 pbc="F F F"
O      -0.72700000       1.34270000      -0.86630000        8 
O       2.99550000      -0.88500000      -1.01350000        8 
O       1.89960000      -1.15020000      -0.32900000        8 
C      -1.25540000       0.33060000      -0.04360000        6 
C      -0.11680000      -0.21790000       0.82470000        6 
C      -2.35750000       0.91260000       0.86080000        6 
C      -1.82470000      -0.80500000      -0.91290000        6 
C       3.81370000      -0.14630000      -0.14910000        6 
H       0.87380000      -0.72550000       0.02820000        1 
H      -0.48290000      -1.02500000       1.49580000        1 
H       0.31940000       0.59220000       1.44800000        1 
H      -2.75590000       0.13320000       1.54580000        1 
H      -3.19810000       1.30370000       0.24830000        1 
H      -1.95350000       1.74910000       1.47050000        1 
H      -1.03680000      -1.20840000      -1.58450000        1 
H      -2.66020000      -0.43170000      -1.54320000        1 
H      -2.20810000      -1.63230000      -0.27710000        1 
H       3.31470000       0.80290000       0.14680000        1 
H       4.06840000      -0.74290000       0.75460000        1 
H       4.75690000       0.10660000      -0.67560000        1 
H      -1.46540000       1.69670000      -1.42870000        1 
