29
Properties=species:S:1:pos:R:3:Z:I:1 pbc="F F F"
O      -1.77340000      -0.84720000      -1.39870000        8 
O      -0.54220000      -0.49230000      -1.08080000        8 
C      -3.40450000       0.37840000      -0.08780000        6 
C       2.72230000      -0.52960000      -0.99030000        6 
C       4.15220000      -0.62120000      -0.43700000        6 
C      -2.51400000      -0.87250000      -0.20040000        6 
C      -4.35810000       0.24910000       1.10630000        6 
C      -2.56260000       1.65440000       0.04350000        6 
C       1.65910000      -0.76790000       0.07960000        6 
C       4.50740000       0.55250000       0.47510000        6 
H      -4.01980000       0.45880000      -1.01140000        1 
H       2.55640000       0.46220000      -1.46380000        1 
H       2.59860000      -1.30310000      -1.77820000        1 
H       4.86050000      -0.62380000      -1.29370000        1 
H       4.28860000      -1.57670000       0.11470000        1 
H      -1.87360000      -0.98060000       0.70870000        1 
H      -3.16510000      -1.77240000      -0.23210000        1 
H      -4.99810000      -0.65160000       0.99110000        1 
H      -5.02340000       1.13700000       1.16430000        1 
H      -3.78770000       0.16520000       2.05650000        1 
H      -1.89830000       1.59660000       0.93250000        1 
H      -1.94050000       1.80240000      -0.86420000        1 
H      -3.22370000       2.54120000       0.14760000        1 
H       0.42690000      -0.80650000      -0.51490000        1 
H       1.65960000       0.05420000       0.82500000        1 
H       1.83450000      -1.73650000       0.59430000        1 
H       4.33630000       1.51710000      -0.04830000        1 
H       5.57950000       0.48910000       0.75700000        1 
H       3.90310000       0.52380000       1.40540000        1 
