29
Properties=species:S:1:pos:R:3:Z:I:1 pbc="F F F"
O      -1.06330000       0.36520000       0.74530000        8 
O      -0.05810000      -0.39200000       0.34570000        8 
C       2.43220000      -0.15540000       0.11140000        6 
C      -1.91230000       0.52740000      -0.36730000        6 
C      -2.77560000      -0.73380000      -0.59530000        6 
C       2.86660000      -1.18790000      -0.93310000        6 
C       2.62050000       1.26730000      -0.42350000        6 
C       3.20700000      -0.34900000       1.41820000        6 
C      -2.77230000       1.77640000      -0.15870000        6 
C      -3.58000000      -1.15750000       0.63570000        6 
H       1.15610000      -0.33500000       0.36020000        1 
H      -1.31390000       0.70890000      -1.29230000        1 
H      -3.47350000      -0.56080000      -1.44330000        1 
H      -2.11110000      -1.57580000      -0.88690000        1 
H       3.94510000      -1.07280000      -1.17560000        1 
H       2.69100000      -2.21500000      -0.54880000        1 
H       2.27250000      -1.06170000      -1.86300000        1 
H       3.69080000       1.46470000      -0.64890000        1 
H       2.02500000       1.40730000      -1.35050000        1 
H       2.26800000       2.00590000       0.32740000        1 
H       3.03340000      -1.37150000       1.81570000        1 
H       4.29690000      -0.20580000       1.25460000        1 
H       2.85780000       0.38050000       2.17940000        1 
H      -4.10670000      -2.11080000       0.41950000        1 
H      -4.34330000      -0.39360000       0.88990000        1 
H      -2.91060000      -1.31830000       1.50680000        1 
H      -2.12090000       2.67560000      -0.13070000        1 
H      -3.49550000       1.89500000      -0.99360000        1 
H      -3.32600000       1.72210000       0.80180000        1 
