17
Properties=species:S:1:pos:R:3:Z:I:1 pbc="F F F"
O       2.22910000      -0.25230000       0.40690000        8 
O      -1.98690000       1.37370000      -0.83160000        8 
O      -2.81150000       2.39690000      -0.76260000        8 
C      -0.14560000      -0.00610000       0.01170000        6 
C       1.21700000       0.68750000       0.16600000        6 
C      -0.54520000      -0.74300000       1.29510000        6 
C      -0.15420000      -0.95870000      -1.18920000        6 
H      -1.04340000       0.92520000      -0.21040000        1 
H       1.16730000       1.41140000       1.00990000        1 
H       1.44620000       1.25760000      -0.76210000        1 
H       0.16790000      -1.56520000       1.51890000        1 
H      -1.56330000      -1.17280000       1.18390000        1 
H      -0.56130000      -0.03590000       2.15130000        1 
H       0.57120000      -1.78770000      -1.04320000        1 
H      -1.16870000      -1.39040000      -1.32310000        1 
H       0.11030000      -0.40630000      -2.11570000        1 
H       3.07080000       0.26620000       0.49430000        1 
