21
Properties=species:S:1:pos:R:3:Z:I:1 pbc="F F F"
C      -0.85620000       0.03010000       0.00120000        6 
C      -1.28240000       1.47590000      -0.27110000        6 
C      -0.97060000      -0.81590000      -1.27060000        6 
C      -1.69340000      -0.57670000       1.13130000        6 
C       2.80980000       0.15460000      -0.24220000        6 
C       1.68910000      -0.27670000       0.68560000        6 
H       0.36240000       0.03620000       0.36730000        1 
H      -0.64520000       1.91750000      -1.06640000        1 
H      -2.34470000       1.51860000      -0.59500000        1 
H      -1.16100000       2.08820000       0.64760000        1 
H      -0.62480000      -1.85240000      -1.07100000        1 
H      -0.33150000      -0.38760000      -2.07170000        1 
H      -2.02250000      -0.84930000      -1.62770000        1 
H      -2.76930000      -0.60220000       0.85390000        1 
H      -1.57440000       0.02370000       2.05810000        1 
H      -1.35180000      -1.61180000       1.34480000        1 
H       2.70850000       1.23610000      -0.47020000        1 
H       2.75240000      -0.42270000      -1.18830000        1 
H       3.79270000      -0.02850000       0.24090000        1 
H       1.73440000       0.30300000       1.63160000        1 
H       1.77840000      -1.36010000       0.91160000        1 
