16
Properties=species:S:1:pos:R:3:Z:I:1 pbc="F F F"
O       2.98940000      -0.41360000      -0.13760000        8 
C      -0.32420000       0.11130000       0.34930000        6 
C       0.52050000      -0.96080000      -0.34660000        6 
C      -0.31480000       1.41270000      -0.45950000        6 
C      -1.75930000      -0.38390000       0.55830000        6 
H       0.12420000       0.31600000       1.34640000        1 
H       1.62850000      -0.58370000      -0.47120000        1 
H       0.10630000      -1.19740000      -1.35040000        1 
H       0.53810000      -1.88960000       0.26280000        1 
H      -0.90140000       2.19510000       0.06790000        1 
H       0.72600000       1.78270000      -0.57740000        1 
H      -0.75520000       1.25220000      -1.46720000        1 
H      -2.24590000      -0.60130000      -0.41700000        1 
H      -2.35560000       0.38590000       1.09320000        1 
H      -1.75910000      -1.30910000       1.17340000        1 
H       3.78250000      -0.11680000       0.37570000        1 
