11
Properties=species:S:1:pos:R:3:Z:I:1 pbc="F F F"
O      -0.06900000       1.59800000      -0.80870000        8 
O       2.72120000       0.47990000       1.36570000        8 
C       0.98460000      -0.41780000      -0.21540000        6 
C      -1.58440000       0.01490000       0.04480000        6 
C      -0.21350000       0.47290000      -0.35680000        6 
H       1.81520000       0.12350000       0.53320000        1 
H       0.70980000      -1.40410000       0.21310000        1 
H       1.44610000      -0.57970000      -1.21200000        1 
H      -1.98280000       0.68550000       0.83470000        1 
H      -2.25990000       0.05030000      -0.83550000        1 
H      -1.56720000      -1.02340000       0.43680000        1 
