24
Properties=species:S:1:pos:R:3:Z:I:1 pbc="F F F"
O      -0.58590000       0.15800000       0.51650000        8 
O       0.70780000       0.26510000       0.28230000        8 
C      -2.71850000      -0.11590000      -0.59480000        6 
C      -1.19340000       0.01860000      -0.74240000        6 
C      -3.09200000      -1.36950000       0.20650000        6 
C      -3.32910000       1.13840000       0.04310000        6 
C       3.15030000       0.59530000      -0.34720000        6 
C       4.00120000      -0.47150000       0.27360000        6 
C       4.93080000      -0.19160000       1.19130000        6 
H      -3.15000000      -0.22320000      -1.61470000        1 
H      -0.96840000       0.90700000      -1.37620000        1 
H      -0.79890000      -0.88610000      -1.25940000        1 
H      -2.70840000      -1.30320000       1.24720000        1 
H      -4.19640000      -1.48490000       0.24100000        1 
H      -2.66550000      -2.27430000      -0.27680000        1 
H      -4.43590000       1.04910000       0.07590000        1 
H      -3.07300000       2.03710000      -0.55770000        1 
H      -2.95250000       1.27920000       1.07890000        1 
H       1.88910000       0.33730000      -0.09980000        1 
H       3.39410000       1.60380000       0.05080000        1 
H       3.30890000       0.59670000      -1.44550000        1 
H       3.85230000      -1.50170000      -0.03460000        1 
H       5.52740000      -0.99090000       1.61900000        1 
H       5.10600000       0.82720000       1.52310000        1 
