18
Properties=species:S:1:pos:R:3:Z:I:1 pbc="F F F"
C      -0.79480000      -0.14350000       0.27610000        6 
C       0.22070000      -0.51950000      -0.80660000        6 
C      -0.63990000       1.32920000       0.66840000        6 
C      -2.22320000      -0.42860000      -0.20020000        6 
C       2.72940000      -0.29510000       0.07990000        6 
H      -0.59320000      -0.76770000       1.17410000        1 
H       1.42910000      -0.30340000      -0.37460000        1 
H       0.13040000      -1.59770000      -1.05890000        1 
H       0.05490000       0.08060000      -1.72730000        1 
H      -0.83120000       1.99060000      -0.20400000        1 
H       0.38810000       1.51930000       1.04430000        1 
H      -1.35610000       1.58680000       1.47770000        1 
H      -2.95030000      -0.18460000       0.60350000        1 
H      -2.33490000      -1.50500000      -0.45170000        1 
H      -2.46570000       0.17730000      -1.09980000        1 
H       3.08270000       0.72330000       0.34210000        1 
H       3.37340000      -0.71550000      -0.71960000        1 
H       2.78050000      -0.94650000       0.97660000        1 
