17
Properties=species:S:1:pos:R:3:Z:I:1 pbc="F F F"
O      -0.94900000      -0.22660000       2.27980000        8 
C      -0.40220000      -0.07120000      -0.01900000        6 
C      -0.92380000       1.34970000      -0.25320000        6 
C      -0.59330000      -0.92800000      -1.27390000        6 
C      -1.09300000      -0.69810000       1.16300000        6 
C       2.20850000       0.09130000       0.57260000        6 
H       0.82000000      -0.01030000       0.22610000        1 
H      -0.39770000       1.81190000      -1.11540000        1 
H      -0.73450000       1.97970000       0.64190000        1 
H      -2.01570000       1.33770000      -0.46140000        1 
H      -1.67050000      -1.00660000      -1.53710000        1 
H      -0.18840000      -1.94830000      -1.10280000        1 
H      -0.04570000      -0.47860000      -2.12940000        1 
H      -1.71560000      -1.57930000       1.03870000        1 
H       2.78040000       0.34630000      -0.34320000        1 
H       2.33640000       0.89670000       1.32470000        1 
H       2.58410000      -0.86610000       0.98850000        1 
