20
Properties=species:S:1:pos:R:3:Z:I:1 pbc="F F F"
O       0.56090000       0.76250000      -0.10240000        8 
O       3.82270000      -0.26450000       0.51970000        8 
C      -1.46010000      -0.56510000      -0.00640000        6 
C       0.06310000      -0.54030000      -0.21470000        6 
C      -1.83740000      -0.08230000       1.39970000        6 
C      -2.18170000       0.26270000      -1.07730000        6 
C       3.06600000       0.67430000      -0.18080000        6 
H      -1.79860000      -1.62020000      -0.10630000        1 
H       0.55480000      -1.18840000       0.54310000        1 
H       0.30950000      -0.94260000      -1.22140000        1 
H      -2.93390000      -0.17430000       1.55290000        1 
H      -1.54540000       0.97980000       1.54530000        1 
H      -1.32840000      -0.70340000       2.16730000        1 
H      -3.28180000       0.17440000      -0.95020000        1 
H      -1.89990000       1.33510000      -1.00530000        1 
H      -1.92020000      -0.11040000      -2.09040000        1 
H       3.52210000       0.85190000      -1.17730000        1 
H       3.04180000       1.62710000       0.38700000        1 
H       1.85020000       0.65830000      -0.29620000        1 
H       3.39640000      -1.13480000       0.31370000        1 
