15
Properties=species:S:1:pos:R:3:Z:I:1 pbc="F F F"
O       1.33430000       0.33670000      -1.93530000        8 
O       2.59510000       0.38630000       0.95880000        8 
O       3.75200000      -0.17210000       1.24430000        8 
C      -0.57510000      -0.07250000      -0.59470000        6 
C      -1.31550000       1.08800000       0.07330000        6 
C      -0.66460000      -1.33850000       0.25980000        6 
C       0.86490000       0.29730000      -0.80910000        6 
H      -1.05650000      -0.27710000      -1.57720000        1 
H      -1.25790000       1.99530000      -0.56560000        1 
H      -0.87240000       1.31930000       1.06630000        1 
H      -2.38710000       0.82890000       0.21070000        1 
H      -0.13860000      -2.17720000      -0.24490000        1 
H      -0.20350000      -1.17430000       1.25790000        1 
H      -1.72740000      -1.63060000       0.39970000        1 
H       1.65240000       0.59040000       0.25590000        1 
