15
Properties=species:S:1:pos:R:3:Z:I:1 pbc="F F F"
C      -0.20760000       0.07020000       0.37140000        6 
C       0.83160000      -0.95850000      -0.08250000        6 
C      -1.62070000      -0.38520000      -0.00830000        6 
C       0.09840000       1.44400000      -0.23330000        6 
H      -0.15200000       0.15540000       1.47890000        1 
H       2.04010000      -0.56700000       0.28200000        1 
H       0.81020000      -1.07880000      -1.18720000        1 
H       0.62860000      -1.94300000       0.39070000        1 
H      -1.71870000      -0.48340000      -1.11110000        1 
H      -1.84540000      -1.36680000       0.46090000        1 
H      -2.37000000       0.35040000       0.35440000        1 
H       1.11100000       1.78120000       0.07490000        1 
H       0.05580000       1.40310000      -1.34320000        1 
H      -0.63890000       2.19310000       0.12650000        1 
H       2.97750000      -0.61470000       0.42600000        1 
