27
Properties=species:S:1:pos:R:3:Z:I:1 pbc="F F F"
O      -0.77820000      -0.03720000      -1.21440000        8 
O       0.28310000       0.73140000      -1.36710000        8 
C      -2.77090000      -0.31290000       0.11130000        6 
C      -1.49700000       0.51020000      -0.13980000        6 
C      -3.48900000       0.18170000       1.37260000        6 
C      -3.71600000      -0.25190000      -1.09630000        6 
C       2.46990000      -0.39110000      -1.02470000        6 
C       4.48270000      -0.85620000       0.53210000        6 
C       3.30060000      -0.00070000       0.16560000        6 
C       2.99240000       1.08860000       0.88490000        6 
H      -2.47930000      -1.37420000       0.27480000        1 
H      -1.77390000       1.56740000      -0.35960000        1 
H      -0.86480000       0.48890000       0.77760000        1 
H      -3.79720000       1.24330000       1.25790000        1 
H      -2.81880000       0.09580000       2.25440000        1 
H      -4.39240000      -0.43530000       1.56650000        1 
H      -4.02530000       0.79590000      -1.30020000        1 
H      -3.21640000      -0.66100000      -1.99990000        1 
H      -4.62410000      -0.86190000      -0.90280000        1 
H       1.47810000       0.44270000      -1.22310000        1 
H       2.04950000      -1.40630000      -0.86640000        1 
H       3.10700000      -0.40230000      -1.93370000        1 
H       5.01650000      -0.46810000       1.42610000        1 
H       5.19640000      -0.88530000      -0.31770000        1 
H       4.13910000      -1.88920000       0.74950000        1 
H       3.58720000       1.37750000       1.74610000        1 
H       2.14090000       1.71030000       0.62620000        1 
