23
Properties=species:S:1:pos:R:3:Z:I:1 pbc="F F F"
O      -1.32330000      -0.65220000       0.87960000        8 
O      -0.17430000      -0.78840000       0.24360000        8 
C      -2.25270000      -0.17890000      -0.06620000        6 
C       3.16560000      -0.48810000       0.23180000        6 
C      -3.66230000      -0.50860000       0.42300000        6 
C      -2.09400000       1.33430000      -0.24950000        6 
C       2.13780000      -1.13970000      -0.68590000        6 
C       2.99810000       1.02750000       0.25690000        6 
H      -2.11580000      -0.68360000      -1.05260000        1 
H       4.18830000      -0.74000000      -0.12290000        1 
H       3.04040000      -0.88760000       1.26100000        1 
H      -4.41830000      -0.16110000      -0.31350000        1 
H      -3.85870000      -0.02190000       1.40260000        1 
H      -3.77010000      -1.60750000       0.54380000        1 
H      -2.22860000       1.85920000       0.72060000        1 
H      -1.08180000       1.56640000      -0.64270000        1 
H      -2.84380000       1.71510000      -0.97560000        1 
H       0.87250000      -0.84930000      -0.25240000        1 
H       2.26300000      -0.77430000      -1.72750000        1 
H       2.27490000      -2.24150000      -0.67580000        1 
H       1.98740000       1.29820000       0.63020000        1 
H       3.75750000       1.47380000       0.93300000        1 
H       3.13840000       1.44830000      -0.76160000        1 
