27
Properties=species:S:1:pos:R:3:Z:I:1 pbc="F F F"
O      -0.97030000       0.08670000       1.02450000        8 
O      -0.27620000      -0.76440000       0.28920000        8 
C      -2.23300000       0.26820000       0.41000000        6 
C      -2.07620000       0.86700000      -1.00480000        6 
C      -3.01170000      -1.06390000       0.34700000        6 
C      -3.02380000       1.25930000       1.27830000        6 
C       1.85500000      -0.28980000      -1.00710000        6 
C       4.26220000      -1.13580000      -0.51850000        6 
C       3.11380000      -0.22030000      -0.19020000        6 
C       3.19860000       0.65350000       0.82260000        6 
H      -1.47290000       1.79920000      -0.96300000        1 
H      -3.06990000       1.10650000      -1.44140000        1 
H      -1.56800000       0.15230000      -1.68670000        1 
H      -2.50850000      -1.78890000      -0.32760000        1 
H      -3.07990000      -1.51750000       1.35910000        1 
H      -4.04120000      -0.89830000      -0.03780000        1 
H      -2.48310000       2.22780000       1.34850000        1 
H      -3.14670000       0.85810000       2.30750000        1 
H      -4.03230000       1.44830000       0.85040000        1 
H       0.84140000      -0.58420000      -0.22970000        1 
H       1.66840000       0.68950000      -1.49640000        1 
H       1.93640000      -1.06900000      -1.79450000        1 
H       3.93100000      -2.19150000      -0.42880000        1 
H       4.59730000      -0.94970000      -1.56040000        1 
H       5.12660000      -0.97930000       0.16210000        1 
H       4.09570000       0.72420000       1.43000000        1 
H       2.36730000       1.31190000       1.05780000        1 
