22
Properties=species:S:1:pos:R:3:Z:I:1 pbc="F F F"
O       2.14990000       0.76000000      -0.19960000        8 
O       3.16270000      -0.86060000      -1.48370000        8 
O       1.05330000       0.77090000      -0.96880000        8 
C      -2.05250000       0.23050000      -0.24490000        6 
C      -0.87900000      -0.72340000      -0.48290000        6 
C      -1.83000000       1.04450000       1.03340000        6 
C      -3.37260000      -0.54410000      -0.17020000        6 
C       4.42730000      -0.08420000       0.38030000        6 
C       3.21610000      -0.08840000      -0.48930000        6 
H      -2.10690000       0.93550000      -1.10330000        1 
H       0.28580000      -0.01100000      -0.57910000        1 
H      -1.02450000      -1.28080000      -1.43280000        1 
H      -0.78780000      -1.45150000       0.35170000        1 
H      -1.76650000       0.37590000       1.91900000        1 
H      -2.66780000       1.75870000       1.18270000        1 
H      -0.88830000       1.62880000       0.95650000        1 
H      -3.54050000      -1.10570000      -1.11400000        1 
H      -4.22130000       0.15900000      -0.03130000        1 
H      -3.35910000      -1.26260000       0.67760000        1 
H       4.57730000      -1.09390000       0.81650000        1 
H       5.31820000       0.19170000      -0.22160000        1 
H       4.30610000       0.65060000       1.20380000        1 
