19
Properties=species:S:1:pos:R:3:Z:I:1 pbc="F F F"
O       0.40860000      -0.83910000       0.30720000        8 
O       4.54120000      -0.01360000       1.20310000        8 
O       1.37780000       0.05640000       0.23150000        8 
C      -0.81360000      -0.18800000       0.01180000        6 
C      -1.10510000       0.92850000       1.03810000        6 
C      -0.79850000       0.38870000      -1.42070000        6 
C      -1.92620000      -1.24390000       0.10490000        6 
C       3.89920000       0.06320000       0.16920000        6 
H      -2.11290000       1.36520000       0.86660000        1 
H      -0.36050000       1.74890000       0.95780000        1 
H      -1.06620000       0.52090000       2.07100000        1 
H      -1.79450000       0.80460000      -1.68630000        1 
H      -0.05220000       1.20610000      -1.51410000        1 
H      -0.53940000      -0.40640000      -2.15240000        1 
H      -2.91990000      -0.79740000      -0.11710000        1 
H      -1.95690000      -1.68350000       1.12530000        1 
H      -1.73930000      -2.06650000      -0.61890000        1 
H       2.55660000      -0.12960000       0.18850000        1 
H       4.40160000       0.28560000      -0.76570000        1 
