15
Properties=species:S:1:pos:R:3:Z:I:1 pbc="F F F"
O      -2.01560000      -1.63470000      -1.37360000        8 
O       2.94720000       0.41610000       0.18610000        8 
C      -0.46080000      -0.13890000      -0.39520000        6 
C       0.67950000      -0.66540000       0.47860000        6 
C      -0.90520000       1.24940000       0.07040000        6 
C      -1.62300000      -1.09190000      -0.35300000        6 
H      -0.08870000      -0.05450000      -1.44080000        1 
H       1.60060000       0.06530000       0.42240000        1 
H       0.35590000      -0.75430000       1.53840000        1 
H       1.00660000      -1.66420000       0.11790000        1 
H      -0.05520000       1.96240000       0.01210000        1 
H      -1.72020000       1.62790000      -0.58340000        1 
H      -1.27310000       1.21480000       1.11890000        1 
H      -2.12020000      -1.30250000       0.58900000        1 
H       3.67220000       0.77060000      -0.38780000        1 
