26
Properties=species:S:1:pos:R:3:Z:I:1 pbc="F F F"
O       1.93590000      -0.09640000       1.41750000        8 
O       0.75570000      -0.64560000       1.19690000        8 
C      -2.51490000      -0.30080000       0.27780000        6 
C       2.44260000       0.28560000       0.16060000        6 
C      -1.23450000      -0.90070000      -0.30900000        6 
C      -2.38550000       1.22040000       0.40170000        6 
C      -3.72890000      -0.67240000      -0.58030000        6 
C       3.49600000       1.37350000       0.36590000        6 
C       3.05970000      -0.92460000      -0.54880000        6 
H      -2.66180000      -0.72340000       1.29600000        1 
H       1.63920000       0.71700000      -0.48330000        1 
H      -0.16710000      -0.58570000       0.48780000        1 
H      -1.04850000      -0.50810000      -1.33200000        1 
H      -1.31690000      -2.00760000      -0.35760000        1 
H      -1.52360000       1.47980000       1.05280000        1 
H      -2.23390000       1.68460000      -0.59670000        1 
H      -3.30380000       1.64630000       0.85950000        1 
H      -3.62110000      -0.26770000      -1.60980000        1 
H      -4.65690000      -0.26140000      -0.12850000        1 
H      -3.83300000      -1.77700000      -0.63790000        1 
H       4.32970000       0.99490000       0.99570000        1 
H       3.90250000       1.70750000      -0.61280000        1 
H       3.03710000       2.24930000       0.87200000        1 
H       2.28250000      -1.69630000      -0.73150000        1 
H       3.48430000      -0.62100000      -1.52960000        1 
H       3.86530000      -1.37030000       0.07340000        1 
