16
Properties=species:S:1:pos:R:3:Z:I:1 pbc="F F F"
O       0.84420000      -0.21270000      -1.23070000        8 
O       2.71500000      -1.46420000      -0.83850000        8 
C      -0.04630000       0.07870000      -0.18340000        6 
C      -1.14050000       1.00700000      -0.72890000        6 
C       0.70820000       0.78620000       0.95560000        6 
C      -0.68490000      -1.22330000       0.33040000        6 
H      -1.87190000       1.26630000       0.06710000        1 
H      -1.68470000       0.51370000      -1.56290000        1 
H      -0.69150000       1.94650000      -1.11710000        1 
H       1.49510000       0.12330000       1.37490000        1 
H       0.01070000       1.06290000       1.77560000        1 
H       1.19700000       1.71000000       0.57820000        1 
H      -1.42480000      -1.00800000       1.13130000        1 
H       0.09050000      -1.90290000       0.74450000        1 
H      -1.20260000      -1.75160000      -0.49890000        1 
H       1.68670000      -0.93170000      -0.79710000        1 
