20
Properties=species:S:1:pos:R:3:Z:I:1 pbc="F F F"
O      -1.18070000      -1.33310000       1.61480000        8 
O       1.73310000       0.18220000       0.67690000        8 
C      -0.59950000       0.14970000      -0.19190000        6 
C      -1.60500000      -0.19400000       0.91790000        6 
C      -0.97150000       1.47830000      -0.85980000        6 
C      -0.52640000      -0.96970000      -1.23860000        6 
C       3.10860000       0.01900000       0.52150000        6 
H       0.46810000       0.27260000       0.29550000        1 
H      -1.67720000       0.66020000       1.62840000        1 
H      -2.61190000      -0.37340000       0.47680000        1 
H      -0.22410000       1.73710000      -1.63980000        1 
H      -1.97580000       1.41310000      -1.33140000        1 
H      -0.97990000       2.29570000      -0.10770000        1 
H      -0.20280000      -1.92060000      -0.76500000        1 
H       0.21500000      -0.71030000      -2.02410000        1 
H      -1.51710000      -1.12500000      -1.71760000        1 
H       3.63460000       0.46630000       1.38980000        1 
H       3.43790000       0.52330000      -0.41020000        1 
H       3.34820000      -1.06250000       0.46100000        1 
H      -1.87350000      -1.50890000       2.30340000        1 
