29
Properties=species:S:1:pos:R:3:Z:I:1 pbc="F F F"
O      -1.05190000      -0.48670000      -1.23450000        8 
O       0.02090000      -0.02960000      -0.61570000        8 
C       2.44120000       0.40700000      -0.03030000        6 
C      -2.38110000      -0.96770000       0.74790000        6 
C      -3.76040000      -0.42440000       0.33850000        6 
C      -1.56510000      -1.52110000      -0.43200000        6 
C       2.61970000       0.14380000       1.46790000        6 
C       2.76780000       1.86510000      -0.36610000        6 
C       3.31200000      -0.54600000      -0.85450000        6 
C      -3.68130000       0.89360000      -0.43060000        6 
H       1.18480000       0.18600000      -0.33920000        1 
H      -4.30650000      -1.17860000      -0.26870000        1 
H      -4.35250000      -0.24910000       1.26290000        1 
H      -1.80300000      -0.18560000       1.28640000        1 
H      -2.54570000      -1.80020000       1.46610000        1 
H      -0.74560000      -2.17350000      -0.04920000        1 
H      -2.21240000      -2.16980000      -1.05970000        1 
H       1.95640000       0.81470000       2.05380000        1 
H       2.34470000      -0.90580000       1.70530000        1 
H       3.67310000       0.31920000       1.77560000        1 
H       3.82620000       2.09830000      -0.11980000        1 
H       2.59930000       2.05360000      -1.44760000        1 
H       2.10530000       2.54580000       0.20960000        1 
H       3.14650000      -0.37110000      -1.93870000        1 
H       3.04090000      -1.59950000      -0.63010000        1 
H       4.38860000      -0.39370000      -0.62460000        1 
H      -3.05540000       1.62950000       0.11760000        1 
H      -3.26390000       0.73110000      -1.44540000        1 
H      -4.70220000       1.31500000      -0.54500000        1 
