16
Properties=species:S:1:pos:R:3:Z:I:1 pbc="F F F"
O       0.40780000       2.09540000      -0.11310000        8 
C      -0.24990000      -0.21010000      -0.35250000        6 
C      -0.49290000       1.13070000       0.35750000        6 
C       1.14460000      -0.75990000      -0.02880000        6 
C      -1.32710000      -1.22790000       0.04060000        6 
H      -0.31390000      -0.04560000      -1.45080000        1 
H      -0.37250000       1.00570000       1.45780000        1 
H      -1.53210000       1.47430000       0.15310000        1 
H       2.07480000       0.08800000      -0.43150000        1 
H       1.25770000      -0.92680000       1.06410000        1 
H       1.30870000      -1.72330000      -0.55730000        1 
H      -2.33370000      -0.84660000      -0.23420000        1 
H      -1.16420000      -2.18610000      -0.49760000        1 
H      -1.30310000      -1.42200000       1.13470000        1 
H       0.20890000       2.92720000       0.39050000        1 
H       2.68680000       0.62700000      -0.93240000        1 
