19
Properties=species:S:1:pos:R:3:Z:I:1 pbc="F F F"
O       0.79110000      -1.42470000      -1.23380000        8 
C      -0.44360000      -0.35490000       0.55200000        6 
C       0.20190000      -0.21460000      -0.83690000        6 
C      -1.61990000      -1.33990000       0.52420000        6 
C      -0.91040000       1.01380000       1.06050000        6 
C       2.36430000       1.20870000      -0.32320000        6 
H       0.32250000      -0.74190000       1.25970000        1 
H       1.11010000       0.65800000      -0.78340000        1 
H      -0.54820000       0.13210000      -1.58650000        1 
H      -1.26960000      -2.35370000       0.23720000        1 
H      -2.39390000      -1.00660000      -0.20030000        1 
H      -2.08130000      -1.41430000       1.53210000        1 
H      -0.05050000       1.71430000       1.12330000        1 
H      -1.34800000       0.91660000       2.07700000        1 
H      -1.67600000       1.44500000       0.37990000        1 
H       1.79520000       1.99490000      -0.86070000        1 
H       2.20070000       0.22980000      -0.81880000        1 
H       3.44550000       1.45660000      -0.34220000        1 
H       0.11020000      -1.91930000      -1.76010000        1 
