18
Properties=species:S:1:pos:R:3:Z:I:1 pbc="F F F"
O      -0.59670000       1.13060000      -1.13350000        8 
O       3.15360000       0.19830000      -1.65500000        8 
C      -0.65320000       0.19450000      -0.08430000        6 
C       0.62270000       0.29270000       0.76950000        6 
C      -0.74440000      -1.20810000      -0.70050000        6 
C      -1.89700000       0.45610000       0.78520000        6 
C       2.90730000      -0.17460000      -0.52040000        6 
H       1.71670000       0.08920000      -0.00900000        1 
H       0.70630000       1.29910000       1.23310000        1 
H       0.61420000      -0.46810000       1.57980000        1 
H       0.14140000      -1.40680000      -1.34140000        1 
H      -1.65430000      -1.29290000      -1.33300000        1 
H      -0.79030000      -1.98630000       0.09200000        1 
H      -2.81730000       0.41110000       0.16400000        1 
H      -1.84170000       1.46310000       1.25170000        1 
H      -1.97690000      -0.30140000       1.59470000        1 
H      -0.53890000       2.03760000      -0.73210000        1 
H       3.64860000      -0.73420000       0.03930000        1 
