15
Properties=species:S:1:pos:R:3:Z:I:1 pbc="F F F"
C       0.00270000      -0.02000000       0.21830000        6 
C      -0.65660000      -1.23470000      -0.44200000        6 
C      -0.82340000       1.24560000      -0.03100000        6 
C       1.43590000       0.16080000      -0.29120000        6 
H       0.04860000      -0.22370000       1.46630000        1 
H      -0.71820000      -1.09880000      -1.54330000        1 
H      -0.06930000      -2.15210000      -0.22450000        1 
H      -1.68160000      -1.37800000      -0.03890000        1 
H      -0.89050000       1.46380000      -1.11870000        1 
H      -0.35620000       2.11280000       0.48220000        1 
H      -1.84940000       1.11680000       0.37460000        1 
H       1.44370000       0.34310000      -1.38750000        1 
H       2.03540000      -0.74830000      -0.07280000        1 
H       1.91630000       1.02170000       0.22050000        1 
H       0.16270000      -0.60890000       2.38800000        1 
