17
Properties=species:S:1:pos:R:3:Z:I:1 pbc="F F F"
O       0.96020000      -0.57180000       0.77780000        8 
O       2.78240000      -1.04060000      -0.61670000        8 
C      -0.21320000       0.01910000       0.27630000        6 
C      -0.95740000      -0.98470000      -0.62230000        6 
C      -1.10420000       0.39910000       1.46740000        6 
C       0.14320000       1.28510000      -0.52310000        6 
H      -1.90970000      -0.54800000      -0.99370000        1 
H      -1.18900000      -1.91150000      -0.05480000        1 
H      -0.33380000      -1.26120000      -1.49930000        1 
H      -2.04820000       0.87210000       1.11990000        1 
H      -0.57420000       1.11370000       2.13330000        1 
H      -1.35870000      -0.50420000       2.06270000        1 
H       0.70690000       1.99820000       0.11600000        1 
H      -0.77660000       1.78850000      -0.89170000        1 
H       0.77660000       1.02860000      -1.39930000        1 
H       1.59590000      -0.84250000      -0.08340000        1 
H       3.49980000      -0.83990000      -1.26900000        1 
