22
Properties=species:S:1:pos:R:3:Z:I:1 pbc="F F F"
O      -1.57090000       1.17990000      -1.23510000        8 
C      -0.90490000      -0.67890000       0.18010000        6 
C      -0.61200000       0.17020000      -1.06890000        6 
C      -2.27360000      -1.36390000       0.08150000        6 
C      -0.80620000       0.15860000       1.46060000        6 
C       2.74060000       0.01440000       0.14170000        6 
C       1.91460000       0.98360000      -0.68350000        6 
H      -0.12890000      -1.47400000       0.23460000        1 
H       0.56910000       0.67640000      -0.98480000        1 
H      -0.62440000      -0.48170000      -1.96850000        1 
H      -3.09120000      -0.61200000       0.05170000        1 
H      -2.43190000      -2.02730000       0.95840000        1 
H      -2.32470000      -1.98710000      -0.83670000        1 
H      -0.93090000      -0.49310000       2.35160000        1 
H      -1.59210000       0.94350000       1.48300000        1 
H       0.19060000       0.64470000       1.52520000        1 
H       2.70780000      -0.99250000      -0.32410000        1 
H       2.32530000      -0.04730000       1.16910000        1 
H       3.79400000       0.36200000       0.19160000        1 
H       2.31880000       1.04430000      -1.71590000        1 
H       1.93530000       1.99190000      -0.21890000        1 
H      -1.20450000       1.98840000      -0.79260000        1 
