24
Properties=species:S:1:pos:R:3:Z:I:1 pbc="F F F"
O      -0.97240000      -0.36350000       1.36180000        8 
O       4.75870000       0.35530000      -0.23650000        8 
O       0.26110000      -0.01470000       1.04010000        8 
C      -1.80180000      -0.12610000       0.23900000        6 
C       3.46650000       0.68800000       0.19200000        6 
C      -1.35570000      -0.98220000      -0.96640000        6 
C      -1.80490000       1.37170000      -0.13690000        6 
C      -3.22940000      -0.53710000       0.63230000        6 
C       2.55850000      -0.53310000       0.13780000        6 
H       3.04220000       1.50310000      -0.43650000        1 
H       3.51870000       1.05210000       1.23940000        1 
H      -2.07080000      -0.87350000      -1.81040000        1 
H      -0.35250000      -0.67070000      -1.32780000        1 
H      -1.30630000      -2.05440000      -0.67900000        1 
H      -2.53720000       1.57050000      -0.94920000        1 
H      -0.80420000       1.69580000      -0.49380000        1 
H      -2.07790000       1.98900000       0.74590000        1 
H      -3.25750000      -1.61140000       0.91590000        1 
H      -3.57620000       0.05840000       1.50430000        1 
H      -3.93750000      -0.37570000      -0.20950000        1 
H       1.31380000      -0.19480000       0.59560000        1 
H       2.97080000      -1.34310000       0.77610000        1 
H       2.47120000      -0.89860000      -0.90730000        1 
H       4.72250000       0.29510000      -1.22690000        1 
