16
Properties=species:S:1:pos:R:3:Z:I:1 pbc="F F F"
O       1.07820000      -0.24710000       1.04040000        8 
C      -0.02830000      -0.06500000       0.19450000        6 
C       0.08640000      -1.00760000      -1.01550000        6 
C      -1.29920000      -0.39920000       0.98810000        6 
C      -0.08390000       1.39870000      -0.27490000        6 
H       0.99290000      -0.77020000      -1.61260000        1 
H      -0.80250000      -0.90860000      -1.67540000        1 
H       0.16080000      -2.06300000      -0.67590000        1 
H      -1.38670000       0.26540000       1.87460000        1 
H      -2.20490000      -0.26900000       0.35690000        1 
H      -1.26530000      -1.45060000       1.34640000        1 
H      -0.13250000       2.08210000       0.59990000        1 
H      -0.97810000       1.57260000      -0.91170000        1 
H       0.82120000       1.65520000      -0.86600000        1 
H       2.10230000       0.02790000       0.38260000        1 
H       2.93960000       0.17830000       0.24860000        1 
