19
Properties=species:S:1:pos:R:3:Z:I:1 pbc="F F F"
O       2.27170000      -0.05670000      -0.53950000        8 
C      -1.05680000      -0.17970000       0.30830000        6 
C      -0.10530000      -0.69380000      -0.77630000        6 
C      -1.19860000       1.34330000       0.22080000        6 
C      -2.42630000      -0.85730000       0.19080000        6 
C       3.42570000       0.24210000       0.18290000        6 
H      -0.62390000      -0.43410000       1.30070000        1 
H       1.00500000      -0.16530000      -0.64920000        1 
H       0.02230000      -1.79350000      -0.68410000        1 
H      -0.50050000      -0.46130000      -1.78870000        1 
H      -1.86310000       1.71280000       1.03080000        1 
H      -1.62780000       1.64230000      -0.75980000        1 
H      -0.20610000       1.82780000       0.34090000        1 
H      -3.09890000      -0.50380000       1.00120000        1 
H      -2.89510000      -0.62810000      -0.79050000        1 
H      -2.31780000      -1.95870000       0.28810000        1 
H       3.35730000      -0.21110000       1.19320000        1 
H       3.52820000       1.34270000       0.27740000        1 
H       4.31010000      -0.16750000      -0.34700000        1 
