14
Properties=species:S:1:pos:R:3:Z:I:1 pbc="F F F"
O       1.38710000       1.78880000       0.29050000        8 
O       2.04910000      -1.40820000       1.52310000        8 
C      -0.27900000       0.26640000      -0.49640000        6 
C       0.83670000      -0.78540000      -0.55480000        6 
C      -1.40230000      -0.19870000       0.43330000        6 
C       0.22630000       1.61740000      -0.05030000        6 
H      -0.69730000       0.38110000      -1.52000000        1 
H       1.33760000      -0.96290000       0.59080000        1 
H       1.63580000      -0.45770000      -1.25370000        1 
H       0.43240000      -1.75260000      -0.92290000        1 
H      -1.02620000      -0.31840000       1.47250000        1 
H      -2.23050000       0.54220000       0.43470000        1 
H      -1.81110000      -1.17120000       0.08480000        1 
H      -0.45870000       2.45920000      -0.03160000        1 
