27
Properties=species:S:1:pos:R:3:Z:I:1 pbc="F F F"
O      -0.87340000      -0.19900000      -0.55030000        8 
O       0.16770000      -1.00830000      -0.58380000        8 
C      -3.10180000       0.01990000       0.36840000        6 
C       3.60850000      -0.99620000      -0.23120000        6 
C      -1.83050000      -0.83840000       0.25480000        6 
C      -2.80560000       1.36810000       1.03740000        6 
C      -3.75870000       0.22640000      -1.00240000        6 
C       2.32560000      -1.03180000       0.59230000        6 
C       3.76490000       0.31960000      -0.94100000        6 
C       4.02210000       1.45150000      -0.27860000        6 
H      -3.82470000      -0.52790000       1.01280000        1 
H       4.48640000      -1.18030000       0.42520000        1 
H       3.56540000      -1.80880000      -0.98740000        1 
H      -2.09960000      -1.82710000      -0.18290000        1 
H      -1.41820000      -1.01080000       1.27540000        1 
H      -2.35250000       1.20750000       2.03890000        1 
H      -2.10680000       1.97180000       0.41940000        1 
H      -3.74730000       1.94170000       1.17270000        1 
H      -3.99100000      -0.75520000      -1.46760000        1 
H      -4.71040000       0.78810000      -0.88830000        1 
H      -3.08820000       0.79620000      -1.68090000        1 
H       1.24800000      -0.78220000      -0.21380000        1 
H       2.36090000      -0.27490000       1.40420000        1 
H       2.20520000      -2.03610000       1.05030000        1 
H       3.69220000       0.34580000      -2.02430000        1 
H       4.14100000       2.38330000      -0.82200000        1 
H       4.12070000       1.45710000       0.80260000        1 
