20
Properties=species:S:1:pos:R:3:Z:I:1 pbc="F F F"
O       0.77090000       0.11410000      -0.55850000        8 
O       1.84330000      -0.12030000       0.17310000        8 
C      -1.62410000       0.34290000      -0.43140000        6 
C      -0.31380000       0.09180000       0.33260000        6 
C      -1.89570000      -0.77560000      -1.44660000        6 
C      -2.79890000       0.46920000       0.54590000        6 
C       4.31370000       0.04240000       0.64870000        6 
H      -1.53180000       1.30370000      -0.98500000        1 
H      -0.18120000       0.89120000       1.09740000        1 
H      -0.36760000      -0.89410000       0.85020000        1 
H      -1.98620000      -1.75750000      -0.93410000        1 
H      -1.07190000      -0.83280000      -2.18920000        1 
H      -2.83840000      -0.57140000      -1.99790000        1 
H      -3.73810000       0.68030000      -0.00870000        1 
H      -2.92840000      -0.46920000       1.12720000        1 
H      -2.62170000       1.30770000       1.25270000        1 
H       2.95250000       0.08200000       0.30930000        1 
H       4.49550000       0.69760000       1.52520000        1 
H       4.91950000       0.39730000      -0.21030000        1 
H       4.60220000      -0.99910000       0.89930000        1 
