29
Properties=species:S:1:pos:R:3:Z:I:1 pbc="F F F"
O      -1.08220000      -0.81060000      -0.92890000        8 
O       0.19560000      -0.71900000      -0.61430000        8 
C      -3.25940000       0.06190000      -0.37860000        6 
C       3.41990000       0.33390000       0.27570000        6 
C      -1.74870000       0.10310000      -0.09690000        6 
C       1.94250000       0.68480000       0.46920000        6 
C       3.69290000      -1.10300000       0.73120000        6 
C       3.82730000       0.52150000      -1.18910000        6 
C      -3.98280000       1.15690000       0.41440000        6 
C      -3.84780000      -1.31480000      -0.04100000        6 
H       4.02970000       1.02270000       0.90110000        1 
H      -3.42240000       0.25650000      -1.46190000        1 
H      -1.37020000       1.13160000      -0.29860000        1 
H      -1.56260000      -0.14360000       0.97410000        1 
H       1.15530000      -0.14220000      -0.28560000        1 
H       1.75490000       1.73700000       0.16610000        1 
H       1.65890000       0.57650000       1.53790000        1 
H       4.77180000      -1.34210000       0.61690000        1 
H       3.42500000      -1.22240000       1.80270000        1 
H       3.09960000      -1.82550000       0.13010000        1 
H       4.90720000       0.29460000      -1.31780000        1 
H       3.23820000      -0.15020000      -1.85020000        1 
H       3.65630000       1.57360000      -1.50230000        1 
H      -3.84480000       1.00660000       1.50690000        1 
H      -5.06970000       1.14240000       0.18460000        1 
H      -3.58660000       2.15700000       0.13690000        1 
H      -3.36350000      -2.10370000      -0.65450000        1 
H      -4.93640000      -1.33050000      -0.26250000        1 
H      -3.69780000      -1.55290000       1.03410000        1 
