26
Properties=species:S:1:pos:R:3:Z:I:1 pbc="F F F"
O       1.66900000      -0.20500000      -0.57230000        8 
O       0.43780000      -0.16020000      -0.10080000        8 
C      -2.77400000      -0.24360000      -0.06390000        6 
C       3.93460000      -0.70570000       0.05290000        6 
C       2.47390000      -0.62350000       0.49880000        6 
C      -1.77540000       0.45180000       0.86500000        6 
C      -4.19280000      -0.16280000       0.50960000        6 
C      -2.72100000       0.37310000      -1.46490000        6 
C       4.49650000       0.66650000      -0.31310000        6 
H      -2.48730000      -1.31530000      -0.14240000        1 
H       4.01840000      -1.38490000      -0.82320000        1 
H       4.54170000      -1.13310000       0.88020000        1 
H       2.15420000      -1.63440000       0.83950000        1 
H       2.38710000       0.08660000       1.35300000        1 
H      -0.51090000       0.34110000       0.35300000        1 
H      -1.78710000      -0.02630000       1.86770000        1 
H      -2.02550000       1.52900000       0.97660000        1 
H      -4.22810000      -0.64070000       1.51190000        1 
H      -4.90460000      -0.69890000      -0.15380000        1 
H      -4.51830000       0.89560000       0.60480000        1 
H      -3.42280000      -0.15780000      -2.14320000        1 
H      -1.69730000       0.27960000      -1.88620000        1 
H      -2.99890000       1.44870000      -1.43170000        1 
H       3.93470000       1.10180000      -1.16670000        1 
H       4.43380000       1.35430000       0.55700000        1 
H       5.56210000       0.56400000      -0.60770000        1 
