16
Properties=species:S:1:pos:R:3:Z:I:1 pbc="F F F"
O       1.70230000      -0.45920000      -0.46200000        8 
O       2.04140000      -2.15710000       1.09520000        8 
C      -0.62380000       0.22380000      -0.30610000        6 
C       0.45610000      -0.53230000      -1.10030000        6 
C      -0.27540000       1.71120000      -0.16830000        6 
C      -0.85580000      -0.40960000       1.07130000        6 
H      -1.57560000       0.14960000      -0.87730000        1 
H       0.55010000      -0.08360000      -2.11220000        1 
H       0.15310000      -1.59430000      -1.24210000        1 
H       0.65740000       1.84630000       0.42010000        1 
H      -1.10070000       2.25020000       0.34410000        1 
H      -0.13640000       2.16660000      -1.17200000        1 
H      -1.10740000      -1.48590000       0.96120000        1 
H       0.04840000      -0.31380000       1.70960000        1 
H      -1.70450000       0.09300000       1.58260000        1 
H       1.77080000      -1.40490000       0.25610000        1 
