11
Properties=species:S:1:pos:R:3:Z:I:1 pbc="F F F"
O      -0.49460000       1.75470000      -0.64750000        8 
C       0.94180000      -0.11520000      -0.67410000        6 
C      -1.37000000      -0.09290000       0.51840000        6 
C      -0.31930000       0.59870000      -0.29440000        6 
H       1.57000000      -0.48880000       0.40220000        1 
H       1.60680000       0.54930000      -1.26630000        1 
H       0.69480000      -1.01010000      -1.28270000        1 
H      -1.53180000       0.46080000       1.46680000        1 
H      -2.32150000      -0.12480000      -0.05260000        1 
H      -1.06230000      -1.13260000       0.75930000        1 
H       2.28620000      -0.39910000       1.07100000        1 
