19
Properties=species:S:1:pos:R:3:Z:I:1 pbc="F F F"
O       2.84200000      -0.97050000      -0.16670000        8 
O       3.60070000       1.17050000       0.21970000        8 
O       1.59950000      -0.67130000       0.23460000        8 
C      -0.81460000      -0.03450000       0.01620000        6 
C      -1.53910000      -1.13360000       0.79910000        6 
C      -0.97660000       1.32090000       0.71080000        6 
C      -1.32850000       0.03140000      -1.42500000        6 
C       3.84420000      -0.00460000      -0.16240000        6 
H       0.46400000      -0.32870000      -0.01680000        1 
H      -1.38380000      -2.11690000       0.30670000        1 
H      -2.62940000      -0.92510000       0.85290000        1 
H      -1.13270000      -1.19680000       1.83080000        1 
H      -0.41680000       2.10270000       0.15490000        1 
H      -0.56710000       1.27140000       1.74210000        1 
H      -2.04810000       1.61160000       0.76170000        1 
H      -0.77070000       0.80600000      -1.99290000        1 
H      -1.17210000      -0.94540000      -1.92990000        1 
H      -2.41180000       0.27890000      -1.44580000        1 
H       4.84090000      -0.26610000      -0.49020000        1 
