14
Properties=species:S:1:pos:R:3:Z:I:1 pbc="F F F"
O       1.47900000       0.59930000       1.87900000        8 
C      -0.32770000      -0.01120000       0.47410000        6 
C      -1.00920000       1.03500000      -0.41040000        6 
C      -0.36200000      -1.38970000      -0.18910000        6 
C       1.09500000       0.39270000       0.73890000        6 
H      -0.88210000      -0.07120000       1.43740000        1 
H      -0.49230000       1.11970000      -1.39100000        1 
H      -0.99300000       2.02680000       0.09060000        1 
H      -2.06930000       0.75370000      -0.58710000        1 
H       0.17270000      -1.37210000      -1.16360000        1 
H      -1.41330000      -1.70400000      -0.36280000        1 
H       0.11980000      -2.14250000       0.47110000        1 
H       1.93200000       0.52500000      -0.25930000        1 
H       2.75040000       0.23860000      -0.72790000        1 
