26
Properties=species:S:1:pos:R:3:Z:I:1 pbc="F F F"
O      -2.77460000      -0.07870000      -1.43710000        8 
O      -1.46420000       0.07530000      -1.50850000        8 
C      -3.11480000      -0.21440000      -0.07300000        6 
C       1.80690000      -0.35330000      -0.92660000        6 
C       3.11460000      -0.41750000      -0.12370000        6 
C      -2.48790000      -1.47020000       0.54900000        6 
C      -2.77430000       1.04990000       0.72840000        6 
C       0.64060000       0.20130000      -0.11160000        6 
C       3.69900000       0.96540000       0.16230000        6 
H      -4.21790000      -0.34330000      -0.02420000        1 
H       1.94710000       0.26330000      -1.84070000        1 
H       1.54200000      -1.38200000      -1.25240000        1 
H       2.94980000      -0.95780000       0.83380000        1 
H       3.85960000      -0.99590000      -0.71200000        1 
H      -1.38280000      -1.37590000       0.61070000        1 
H      -2.73940000      -2.36010000      -0.06590000        1 
H      -2.88740000      -1.62640000       1.57380000        1 
H      -1.67520000       1.19710000       0.79380000        1 
H      -3.22790000       1.93820000       0.24000000        1 
H      -3.18230000       0.96810000       1.75850000        1 
H      -0.50870000       0.09780000      -0.84750000        1 
H       0.51260000      -0.37650000       0.82830000        1 
H       0.80320000       1.27210000       0.12990000        1 
H       3.83080000       1.53450000      -0.78240000        1 
H       4.69110000       0.85320000       0.64820000        1 
H       3.04020000       1.53580000       0.84930000        1 
