26
Properties=species:S:1:pos:R:3:Z:I:1 pbc="F F F"
O       1.68560000      -0.07090000       1.27900000        8 
O       0.40540000       0.05950000       0.98370000        8 
C      -1.95910000      -0.02620000       0.10240000        6 
C       2.36880000      -0.20410000       0.05520000        6 
C      -1.97820000      -0.75130000      -1.24650000        6 
C      -2.48060000       1.40620000      -0.04590000        6 
C      -2.77950000      -0.79560000       1.14200000        6 
C       3.71290000      -0.88330000       0.31450000        6 
C       2.58350000       1.17330000      -0.58130000        6 
H      -0.71620000       0.03060000       0.52050000        1 
H       1.80020000      -0.85100000      -0.65510000        1 
H      -1.56370000      -1.77550000      -1.13380000        1 
H      -3.01510000      -0.82290000      -1.64020000        1 
H      -1.35040000      -0.20430000      -1.98150000        1 
H      -2.42740000       1.93360000       0.93010000        1 
H      -3.53430000       1.40690000      -0.39940000        1 
H      -1.85560000       1.96530000      -0.77420000        1 
H      -2.72790000      -0.28050000       2.12460000        1 
H      -3.84320000      -0.86870000       0.82830000        1 
H      -2.36950000      -1.82010000       1.26790000        1 
H       3.54650000      -1.88400000       0.76700000        1 
H       4.32870000      -0.27540000       1.01190000        1 
H       4.26850000      -1.01750000      -0.63830000        1 
H       3.14590000       1.07400000      -1.53430000        1 
H       1.60420000       1.64670000      -0.80450000        1 
H       3.15060000       1.83540000       0.10780000        1 
