29
Properties=species:S:1:pos:R:3:Z:I:1 pbc="F F F"
O      -1.21170000       0.75490000       0.55100000        8 
O      -0.15500000       0.05320000       0.17950000        8 
C      -2.35500000       0.17850000      -0.05350000        6 
C       2.34430000       0.02820000       0.19260000        6 
C      -3.57110000       1.00690000       0.38970000        6 
C      -2.55190000      -1.27890000       0.41790000        6 
C      -2.25250000       0.23650000      -1.59330000        6 
C       2.99220000       0.76480000      -0.98360000        6 
C       2.85470000       0.58310000       1.52570000        6 
C       2.60590000      -1.47790000       0.09790000        6 
H       1.04780000       0.22410000       0.13570000        1 
H       4.09490000       0.62610000      -0.97550000        1 
H       2.58740000       0.37960000      -1.94340000        1 
H       2.76490000       1.85030000      -0.92450000        1 
H       3.95270000       0.43840000       1.61790000        1 
H       2.62660000       1.66770000       1.59880000        1 
H       2.35080000       0.06730000       2.37050000        1 
H       3.69560000      -1.69180000       0.14220000        1 
H       2.10060000      -2.00530000       0.93470000        1 
H       2.19880000      -1.87570000      -0.85590000        1 
H      -4.50940000       0.60630000      -0.05190000        1 
H      -3.66680000       0.99010000       1.49690000        1 
H      -3.45450000       2.06510000       0.07020000        1 
H      -2.57530000      -1.32390000       1.52790000        1 
H      -3.50620000      -1.69220000       0.02560000        1 
H      -1.72610000      -1.92950000       0.05920000        1 
H      -3.19540000      -0.11890000      -2.06260000        1 
H      -1.42510000      -0.40600000      -1.96280000        1 
H      -2.06120000       1.27900000      -1.92680000        1 
