21
Properties=species:S:1:pos:R:3:Z:I:1 pbc="F F F"
O      -0.50960000       0.92310000      -1.38160000        8 
O       2.79700000       0.16940000       0.90850000        8 
O       1.94920000      -0.50220000       0.15350000        8 
C      -1.49440000      -0.58580000       0.23320000        6 
C      -0.39010000      -0.34930000      -0.80840000        6 
C      -2.88690000      -0.53030000      -0.40750000        6 
C      -1.38700000       0.41430000       1.39040000        6 
C       3.88140000       0.48000000       0.07780000        6 
H      -1.35070000      -1.60650000       0.65090000        1 
H       0.79590000      -0.46430000      -0.22220000        1 
H      -0.45730000      -1.12400000      -1.60460000        1 
H      -3.09360000       0.48100000      -0.81870000        1 
H      -2.96020000      -1.27430000      -1.22920000        1 
H      -3.66410000      -0.77300000       0.34830000        1 
H      -0.38330000       0.34850000       1.86200000        1 
H      -1.54830000       1.45360000       1.03190000        1 
H      -2.14830000       0.18320000       2.16570000        1 
H       4.36510000      -0.44840000      -0.29860000        1 
H       3.55250000       1.11340000      -0.77550000        1 
H       4.63170000       1.04940000       0.66410000        1 
H       0.30100000       1.04220000      -1.94030000        1 
