19
Properties=species:S:1:pos:R:3:Z:I:1 pbc="F F F"
O      -0.95420000      -0.31900000       1.75090000        8 
C      -0.95550000      -0.09580000      -0.67180000        6 
C      -1.76430000      -0.04560000       0.63730000        6 
C       0.12020000       0.99520000      -0.70920000        6 
C      -0.32990000      -1.47880000      -0.88820000        6 
C       2.28030000       0.45130000       0.64610000        6 
H      -1.66060000       0.09430000      -1.51110000        1 
H      -2.57290000      -0.80630000       0.59560000        1 
H      -2.26170000       0.94680000       0.74180000        1 
H       1.02770000       0.77990000       0.19840000        1 
H       0.61280000       1.00900000      -1.70490000        1 
H      -0.33690000       1.99280000      -0.53570000        1 
H       0.40650000      -1.71000000      -0.08890000        1 
H       0.18820000      -1.51350000      -1.87030000        1 
H      -1.11920000      -2.26060000      -0.88650000        1 
H       2.91520000       0.10270000      -0.19420000        1 
H       2.45370000      -0.19280000       1.53260000        1 
H       2.54000000       1.50080000       0.89510000        1 
H      -0.58960000       0.54980000       2.06300000        1 
