17
Properties=species:S:1:pos:R:3:Z:I:1 pbc="F F F"
O       0.61610000       1.40820000       0.27380000        8 
O       2.72850000      -1.02350000       0.96280000        8 
C      -0.16550000       0.30930000      -0.12920000        6 
C       0.78170000      -0.79880000      -0.60900000        6 
C      -0.99480000      -0.20670000       1.06120000        6 
C      -1.09570000       0.72460000      -1.28410000        6 
H       1.50840000      -1.11740000       0.26050000        1 
H       0.20990000      -1.69310000      -0.93910000        1 
H       1.39830000      -0.43810000      -1.46030000        1 
H      -1.58680000      -1.10110000       0.76950000        1 
H      -0.32690000      -0.48220000       1.90540000        1 
H      -1.69720000       0.57780000       1.41610000        1 
H      -0.50050000       1.12160000      -2.13430000        1 
H      -1.69070000      -0.14370000      -1.64110000        1 
H      -1.79890000       1.51840000      -0.95210000        1 
H       0.00110000       2.12410000       0.58410000        1 
H       2.61300000      -0.77940000       1.91560000        1 
