23
Properties=species:S:1:pos:R:3:Z:I:1 pbc="F F F"
O       0.14700000      -0.54050000      -0.01610000        8 
O       1.11990000      -0.33640000       0.85120000        8 
C      -2.15040000       0.01300000      -0.48530000        6 
C      -0.94970000       0.19760000       0.45690000        6 
C      -3.30710000       0.92770000      -0.06540000        6 
C      -2.61310000      -1.45000000      -0.51190000        6 
C       3.58770000      -0.10670000       0.73510000        6 
C       4.09880000       0.55000000      -0.53460000        6 
H      -1.83970000       0.30100000      -1.51420000        1 
H      -1.22670000      -0.13790000       1.48330000        1 
H      -0.68050000       1.27820000       0.49380000        1 
H      -4.16110000       0.81280000      -0.76670000        1 
H      -3.65050000       0.67960000       0.96210000        1 
H      -2.98410000       1.99040000      -0.08900000        1 
H      -2.92490000      -1.78170000       0.50200000        1 
H      -3.47190000      -1.56730000      -1.20670000        1 
H      -1.79330000      -2.10880000      -0.86870000        1 
H       2.25130000      -0.37300000       0.60660000        1 
H       4.13370000      -1.05680000       0.91450000        1 
H       3.74310000       0.57240000       1.59980000        1 
H       3.93940000      -0.13010000      -1.39740000        1 
H       3.54910000       1.49780000      -0.71260000        1 
H       5.18300000       0.76870000      -0.43670000        1 
