22
Properties=species:S:1:pos:R:3:Z:I:1 pbc="F F F"
O      -0.69110000       1.01610000      -0.11660000        8 
O       1.42360000      -2.45550000       0.32170000        8 
O      -0.39070000      -0.05140000      -0.83500000        8 
C      -2.05540000       0.92280000       0.23680000        6 
C       3.09110000      -0.93970000      -0.39430000        6 
C      -2.96760000       0.95010000      -0.99760000        6 
C      -2.33250000      -0.29900000       1.12410000        6 
C       3.35530000       0.35860000       0.35760000        6 
C       1.67290000      -1.37900000      -0.19680000        6 
H      -2.29750000       1.82450000       0.84020000        1 
H       3.79220000      -1.72320000      -0.03220000        1 
H       3.27040000      -0.78100000      -1.47870000        1 
H      -2.72680000       1.83520000      -1.62370000        1 
H      -4.03070000       1.02070000      -0.68280000        1 
H      -2.83980000       0.03130000      -1.60870000        1 
H      -3.37680000      -0.26530000       1.50150000        1 
H      -1.64350000      -0.29530000       1.99510000        1 
H      -2.19140000      -1.24400000       0.55750000        1 
H       3.18810000       0.21400000       1.44660000        1 
H       2.68510000       1.16360000      -0.01320000        1 
H       4.40850000       0.67240000       0.19840000        1 
H       0.65660000      -0.57590000      -0.59970000        1 
