22
Properties=species:S:1:pos:R:3:Z:I:1 pbc="F F F"
O       0.34050000      -0.18810000       0.84780000        8 
C      -1.96980000       0.01200000       0.19600000        6 
C      -0.50950000       0.38490000      -0.10390000        6 
C      -2.91730000       0.75740000      -0.75120000        6 
C      -2.18810000      -1.50270000       0.08260000        6 
C       4.00370000       0.43720000       0.60130000        6 
C       2.65860000      -0.01850000       0.06670000        6 
H      -2.20770000       0.32380000       1.23730000        1 
H      -0.22310000       0.03080000      -1.11880000        1 
H      -0.39100000       1.49010000      -0.06900000        1 
H      -2.71380000       0.48010000      -1.80810000        1 
H      -2.78870000       1.85500000      -0.63700000        1 
H      -3.97320000       0.50850000      -0.51170000        1 
H      -1.54120000      -2.04210000       0.80660000        1 
H      -1.95210000      -1.85760000      -0.94380000        1 
H      -3.24470000      -1.75550000       0.31470000        1 
H       4.15960000       0.02210000       1.61870000        1 
H       4.02690000       1.54560000       0.65400000        1 
H       4.81630000       0.08410000      -0.06810000        1 
H       2.49110000       0.40020000      -0.94800000        1 
H       2.62420000      -1.12730000       0.01920000        1 
H       1.49930000       0.16020000       0.51460000        1 
