20
Properties=species:S:1:pos:R:3:Z:I:1 pbc="F F F"
O       0.50870000      -0.55130000       0.32430000        8 
O       2.68110000       0.23670000       0.24490000        8 
C      -1.67140000       0.03410000      -0.54810000        6 
C      -0.15050000       0.24960000      -0.61630000        6 
C      -2.04370000      -1.41570000      -0.88310000        6 
C      -2.22940000       0.43550000       0.82320000        6 
C       3.91790000       0.67220000       0.71770000        6 
H      -2.14160000       0.69160000      -1.31260000        1 
H       0.21510000      -0.00010000      -1.63680000        1 
H       0.08270000       1.31940000      -0.42060000        1 
H      -1.65570000      -1.68840000      -1.88770000        1 
H      -3.14840000      -1.53220000      -0.89650000        1 
H      -1.62080000      -2.11680000      -0.13190000        1 
H      -1.81200000      -0.21060000       1.62500000        1 
H      -3.33610000       0.33850000       0.82770000        1 
H      -1.97480000       1.49380000       1.04540000        1 
H       4.72820000       0.14440000       0.17410000        1 
H       4.01280000       1.76510000       0.55280000        1 
H       3.99690000       0.45360000       1.80250000        1 
H       1.64100000      -0.31950000       0.19600000        1 
