13
Properties=species:S:1:pos:R:3:Z:I:1 pbc="F F F"
C      -0.74730000      -1.00990000      -0.41900000        6 
C      -1.44100000      -0.31820000       0.74110000        6 
C       1.93720000       1.06660000       0.15850000        6 
C       1.40930000       0.48290000      -0.91350000        6 
H       0.35480000      -0.43060000      -0.66330000        1 
H      -1.39050000      -0.96620000      -1.32310000        1 
H      -0.55160000      -2.07230000      -0.16190000        1 
H      -0.79540000      -0.36150000       1.64320000        1 
H      -2.40630000      -0.82230000       0.95820000        1 
H      -1.63380000       0.74410000       0.48260000        1 
H       2.38640000       0.46040000       0.93740000        1 
H       1.92110000       2.14710000       0.25870000        1 
H       0.95720000       1.07990000      -1.69880000        1 
