9
Properties=species:S:1:pos:R:3:Z:I:1 pbc="F F F"
O       2.22220000       1.29300000      -0.11380000        8 
C       0.42120000      -0.44140000       0.00180000        6 
C      -1.00180000       0.08790000       0.02840000        6 
H       1.23240000       0.52470000      -0.05370000        1 
H       0.56550000      -1.09020000      -0.88770000        1 
H       0.62060000      -1.03270000       0.92030000        1 
H      -1.19840000       0.68010000      -0.88980000        1 
H      -1.71840000      -0.75890000       0.07720000        1 
H      -1.14320000       0.73760000       0.91740000        1 
