10
Properties=species:S:1:pos:R:3:Z:I:1 pbc="F F F"
O       2.23360000       0.65940000       0.13280000        8 
C      -0.03060000      -0.50890000       0.21930000        6 
C      -1.29270000       0.25020000      -0.15160000        6 
H       0.90700000       0.19040000       0.08730000        1 
H      -0.08930000      -0.84360000       1.27640000        1 
H       0.08180000      -1.39670000      -0.43800000        1 
H      -1.40370000       1.13820000       0.50560000        1 
H      -2.17840000      -0.40790000      -0.02760000        1 
H      -1.23270000       0.58520000      -1.20840000        1 
H       3.00500000       0.33360000      -0.39590000        1 
