13
Properties=species:S:1:pos:R:3:Z:I:1 pbc="F F F"
O       1.27930000      -0.64810000      -0.14720000        8 
C      -1.20250000      -0.63430000      -0.07140000        6 
C      -1.91500000       0.70010000       0.06220000        6 
C       2.51890000      -0.03150000       0.01380000        6 
H       0.02060000      -0.45550000      -0.06250000        1 
H      -1.48030000      -1.29620000       0.77570000        1 
H      -1.49250000      -1.12250000      -1.02560000        1 
H      -1.62270000       1.18740000       1.01590000        1 
H      -3.01420000       0.54310000       0.05450000        1 
H      -1.63490000       1.36110000      -0.78470000        1 
H       3.15450000      -0.64780000       0.68230000        1 
H       3.01220000       0.07070000      -0.97460000        1 
H       2.37670000       0.97340000       0.46170000        1 
