14
Properties=species:S:1:pos:R:3:Z:I:1 pbc="F F F"
O       1.78790000      -1.13540000       0.34280000        8 
O       0.91230000      -0.73020000      -0.55650000        8 
C      -1.57390000      -0.36650000      -0.77650000        6 
C      -2.00540000       0.67750000       0.23760000        6 
C       2.65520000      -0.05370000       0.54270000        6 
H      -0.21060000      -0.48680000      -0.75760000        1 
H      -2.03040000      -1.34720000      -0.52600000        1 
H      -1.89940000      -0.06160000      -1.79340000        1 
H      -3.11100000       0.77980000       0.22710000        1 
H      -1.54510000       1.65570000      -0.01400000        1 
H      -1.67610000       0.37120000       1.25250000        1 
H       3.17940000       0.20810000      -0.40290000        1 
H       2.09860000       0.82860000       0.92890000        1 
H       3.41860000      -0.33940000       1.29530000        1 
