14
Properties=species:S:1:pos:R:3:Z:I:1 pbc="F F F"
O      -1.89260000       1.09960000      -1.45470000        8 
C       1.15990000      -0.14900000      -0.73570000        6 
C       2.09790000      -0.07590000       0.45580000        6 
C      -2.22560000      -0.08410000       0.55560000        6 
C      -1.38420000       0.45570000      -0.55140000        6 
H      -0.06140000       0.32830000      -0.38240000        1 
H       1.05720000      -1.20260000      -1.07080000        1 
H       1.56290000       0.46180000      -1.57090000        1 
H       1.69090000      -0.68520000       1.28970000        1 
H       3.09870000      -0.46500000       0.17300000        1 
H       2.19620000       0.97800000       0.79000000        1 
H      -2.98950000      -0.77680000       0.14440000        1 
H      -2.72950000       0.75040000       1.08670000        1 
H      -1.58080000      -0.63510000       1.27070000        1 
