19
Properties=species:S:1:pos:R:3:Z:I:1 pbc="F F F"
C      -1.07070000       0.09700000      -0.84280000        6 
C      -2.44040000      -0.56570000      -0.96380000        6 
C       1.73180000      -0.77850000       0.16760000        6 
C       2.88800000       0.19280000       0.32670000        6 
C      -1.29670000       1.13490000       1.40780000        6 
C      -0.67170000       0.28180000       0.59320000        6 
H      -1.07770000       1.07950000      -1.36260000        1 
H      -0.31540000      -0.55120000      -1.33480000        1 
H       0.61540000      -0.16990000       0.41700000        1 
H       1.70930000      -1.17090000      -0.87090000        1 
H       1.85130000      -1.62590000       0.87510000        1 
H       3.84730000      -0.32430000       0.11390000        1 
H       2.76510000       1.04000000      -0.38000000        1 
H       2.90700000       0.58530000       1.36500000        1 
H      -2.44100000      -1.54730000      -0.44330000        1 
H      -3.22810000       0.08290000      -0.52510000        1 
H      -2.67810000      -0.73190000      -2.03560000        1 
H      -0.96990000       1.22980000       2.43720000        1 
H      -2.12530000       1.74150000       1.05540000        1 
