12
Properties=species:S:1:pos:R:3:Z:I:1 pbc="F F F"
O       2.46320000       0.13650000       1.67180000        8 
C      -0.93580000       0.38160000      -0.85090000        6 
C      -0.19510000      -0.87890000      -0.52440000        6 
C       0.87560000      -0.92170000       0.27710000        6 
C       1.45410000       0.26290000       0.93040000        6 
H      -1.39270000       0.90030000       0.20700000        1 
H      -0.26040000       1.10010000      -1.36140000        1 
H      -1.78470000       0.15110000      -1.52800000        1 
H      -0.54970000      -1.80460000      -0.96120000        1 
H       1.34480000      -1.88170000       0.45600000        1 
H       1.03040000       1.24790000       0.78800000        1 
H      -2.04970000       1.30660000       0.89560000        1 
