13
Properties=species:S:1:pos:R:3:Z:I:1 pbc="F F F"
O       1.50640000      -1.64690000      -0.74350000        8 
O       2.60730000       1.41160000      -1.76970000        8 
C      -2.10500000      -0.16720000       1.15160000        6 
C      -0.87570000      -0.71890000       0.50450000        6 
C       0.08350000       0.09290000       0.05060000        6 
C       1.30610000      -0.41230000      -0.59120000        6 
H      -1.82840000       0.42010000       2.05270000        1 
H      -2.64910000       0.48620000       0.43710000        1 
H      -2.77370000      -0.99900000       1.45720000        1 
H      -0.77820000      -1.79410000       0.41100000        1 
H      -0.02940000       1.16570000       0.15180000        1 
H       2.10640000       0.34640000      -0.96670000        1 
H       3.42980000       1.81530000      -2.14540000        1 
