10
Properties=species:S:1:pos:R:3:Z:I:1 pbc="F F F"
O      -2.09140000       1.95910000      -0.49220000        8 
O       2.19420000       0.45940000      -0.19890000        8 
O       3.03460000       1.31770000       0.33850000        8 
C       0.04740000      -0.84630000      -0.21020000        6 
C      -1.14660000      -0.21580000       0.42300000        6 
C      -1.63150000       0.90020000      -0.04660000        6 
H       1.06160000      -0.01660000      -0.17060000        1 
H      -0.17530000      -1.10730000      -1.26660000        1 
H       0.31770000      -1.77230000       0.33920000        1 
H      -1.61080000      -0.67800000       1.28430000        1 
