13
Properties=species:S:1:pos:R:3:Z:I:1 pbc="F F F"
O      -0.28520000       2.46140000      -0.98910000        8 
C       1.88160000       0.19240000       0.48330000        6 
C      -1.82250000      -0.63170000      -0.30290000        6 
C       0.46100000       0.28390000       0.01320000        6 
C      -0.40320000      -0.72890000       0.16910000        6 
H       2.56110000       0.33220000      -0.38260000        1 
H       2.07230000       0.99640000       1.22370000        1 
H       2.10090000      -0.78910000       0.95590000        1 
H      -2.50510000      -0.76910000       0.56120000        1 
H      -2.03780000       0.35080000      -0.77470000        1 
H      -2.01630000      -1.43350000      -1.04530000        1 
H       0.07830000       1.38610000      -0.55900000        1 
H      -0.08510000      -1.65100000       0.64720000        1 
