15
Properties=species:S:1:pos:R:3:Z:I:1 pbc="F F F"
O      -3.17580000       2.02140000       0.53360000        8 
C       0.38130000      -0.97430000      -0.74310000        6 
C      -0.89680000      -0.66570000      -0.03360000        6 
C      -1.43460000       0.55320000      -0.09160000        6 
C      -2.68820000       0.86330000       0.60350000        6 
C       2.56500000       0.22180000       0.21220000        6 
H       1.28830000      -0.23710000      -0.31820000        1 
H       0.25690000      -0.81540000      -1.83510000        1 
H       0.66420000      -2.03270000      -0.56400000        1 
H      -1.38170000      -1.45190000       0.53390000        1 
H      -0.94390000       1.33510000      -0.66000000        1 
H      -3.20330000       0.10470000       1.17970000        1 
H       3.05800000      -0.58910000       0.78680000        1 
H       2.22480000       1.01490000       0.90940000        1 
H       3.28580000       0.65170000      -0.51350000        1 
