12
Properties=species:S:1:pos:R:3:Z:I:1 pbc="F F F"
O       2.30930000       0.66800000      -0.70300000        8 
C      -1.85680000       0.74370000       0.50740000        6 
C      -0.42180000       0.76270000       0.08910000        6 
C       0.25970000      -0.37460000      -0.07490000        6 
C       1.67130000      -0.39650000      -0.48510000        6 
H      -2.23820000       1.78320000       0.58710000        1 
H      -1.95710000       0.24820000       1.49630000        1 
H      -2.46370000       0.19560000      -0.24400000        1 
H       0.05560000       1.72090000      -0.07870000        1 
H      -0.23160000      -1.32470000       0.09680000        1 
H       2.27690000      -1.54870000      -0.62670000        1 
H       2.59640000      -2.47780000      -0.56420000        1 
