14
Properties=species:S:1:pos:R:3:Z:I:1 pbc="F F F"
O      -0.60740000       1.85080000       1.15270000        8 
O      -0.44580000       3.11920000       1.46440000        8 
C      -1.08770000      -0.16690000      -1.74000000        6 
C       1.27450000      -0.69610000       1.27030000        6 
C      -0.38990000      -0.03520000      -0.42020000        6 
C       0.60110000      -0.85800000      -0.05560000        6 
H      -0.96490000       0.77600000      -2.31180000        1 
H      -0.68130000      -1.00740000      -2.34270000        1 
H      -2.16890000      -0.34260000      -1.56370000        1 
H       0.53350000      -0.81450000       2.08900000        1 
H       1.74260000       0.30870000       1.33770000        1 
H       2.06380000      -1.46800000       1.38640000        1 
H      -0.79880000       0.98820000       0.45190000        1 
H       0.92920000      -1.65420000      -0.71820000        1 
