14
Properties=species:S:1:pos:R:3:Z:I:1 pbc="F F F"
O      -2.62990000      -1.35960000       0.54410000        8 
C      -0.52410000       1.45610000      -0.11980000        6 
C       1.94450000      -0.21820000      -0.23800000        6 
C      -0.50190000      -0.00060000       0.23930000        6 
C       0.60790000      -0.75390000       0.18620000        6 
H      -0.21620000       1.59410000      -1.17750000        1 
H      -1.55340000       1.85180000       0.00510000        1 
H       0.15840000       2.02460000       0.54630000        1 
H       1.88940000       0.16610000      -1.27820000        1 
H       2.26400000       0.59650000       0.44520000        1 
H       2.70060000      -1.03010000      -0.19960000        1 
H      -1.53970000      -0.52040000       0.59460000        1 
H       0.53640000      -1.80130000       0.46330000        1 
H      -3.13580000      -2.00510000      -0.01090000        1 
