13
Properties=species:S:1:pos:R:3:Z:I:1 pbc="F F F"
O      -2.43480000       0.29180000       0.29910000        8 
O       2.70770000      -0.22580000       1.78960000        8 
C       0.34450000       0.19650000       0.83590000        6 
C       0.33290000       0.03050000      -0.65290000        6 
C      -0.77430000       0.00760000      -1.41000000        6 
C      -2.16090000       0.13990000      -0.92030000        6 
H       1.40070000       0.17890000       1.20580000        1 
H      -0.20810000      -0.63640000       1.31910000        1 
H      -0.10710000       1.17110000       1.11670000        1 
H       1.28990000      -0.07860000      -1.14910000        1 
H      -0.64860000      -0.11910000      -2.47820000        1 
H      -2.97010000       0.10490000      -1.63740000        1 
H       3.22820000      -1.06140000       1.68190000        1 
