11
Properties=species:S:1:pos:R:3:Z:I:1 pbc="F F F"
O      -0.92320000      -1.17700000      -1.33400000        8 
C      -1.67880000       0.57860000       0.05190000        6 
C      -0.66760000      -0.41720000      -0.41370000        6 
C       1.87290000      -0.30920000       0.23780000        6 
H      -2.61360000       0.49960000      -0.54330000        1 
H      -1.91210000       0.39270000       1.12060000        1 
H      -1.26390000       1.60180000      -0.05760000        1 
H       0.48470000      -0.47400000       0.16190000        1 
H       2.04120000       0.74920000      -0.04890000        1 
H       2.43440000      -0.97280000      -0.45150000        1 
H       2.22600000      -0.47160000       1.27690000        1 
