14
Properties=species:S:1:pos:R:3:Z:I:1 pbc="F F F"
O      -1.82040000      -0.22870000      -1.83010000        8 
C      -2.34120000       0.19970000       0.42700000        6 
C       2.22750000       0.47180000       0.13690000        6 
C       1.18110000      -0.59830000      -0.11360000        6 
C      -1.40440000      -0.12780000      -0.68740000        6 
H      -3.12290000      -0.58480000       0.50370000        1 
H      -1.77910000       0.24750000       1.38250000        1 
H      -2.82120000       1.18270000       0.23780000        1 
H       2.31220000       1.12540000      -0.75610000        1 
H       3.21120000      -0.00120000       0.34070000        1 
H       1.92810000       1.08760000       1.01030000        1 
H      -0.12430000      -0.30900000      -0.43900000        1 
H       1.08410000      -1.25140000       0.77910000        1 
H       1.46920000      -1.21350000      -0.99190000        1 
