9
Properties=species:S:1:pos:R:3:Z:I:1 pbc="F F F"
O      -0.43250000       1.84170000       0.43580000        8 
O       2.21610000      -0.08490000      -0.21080000        8 
O       3.29660000      -0.77780000       0.07940000        8 
C      -1.29300000      -0.29630000      -0.07670000        6 
C      -0.18650000       0.68160000       0.14690000        6 
H      -1.19680000      -1.13100000       0.64790000        1 
H      -2.28290000       0.19000000       0.05790000        1 
H      -1.22350000      -0.69940000      -1.10800000        1 
H       1.10250000       0.27610000       0.02760000        1 
