20
Properties=species:S:1:pos:R:3:Z:I:1 pbc="F F F"
O       0.24010000       0.92630000       1.07630000        8 
O       2.49610000       0.53110000       0.89770000        8 
C      -0.45710000       0.16520000       0.12760000        6 
C      -1.84550000      -0.17760000       0.69630000        6 
C      -0.55200000       0.95650000      -1.18170000        6 
C      -2.59850000      -1.20460000      -0.15010000        6 
C       3.64930000      -0.01420000       0.33590000        6 
H       0.09930000      -0.78160000      -0.05990000        1 
H      -2.45930000       0.74470000       0.79210000        1 
H      -1.71650000      -0.60210000       1.71600000        1 
H      -2.87720000      -0.77540000      -1.13450000        1 
H      -1.97830000      -2.11320000      -0.30320000        1 
H      -3.53240000      -1.49960000       0.37330000        1 
H       0.46420000       1.25530000      -1.51570000        1 
H      -1.16190000       1.87410000      -1.03990000        1 
H      -1.00210000       0.33650000      -1.98420000        1 
H       4.54000000       0.51390000       0.73420000        1 
H       3.61350000       0.10110000      -0.76690000        1 
H       3.71230000      -1.09150000       0.59330000        1 
H       1.36590000       0.85540000       0.79330000        1 
