16
Properties=species:S:1:pos:R:3:Z:I:1 pbc="F F F"
O      -1.26530000      -1.11740000      -0.90010000        8 
C      -0.88120000      -0.22360000       0.11230000        6 
C       0.46630000      -0.64450000       0.73410000        6 
C      -0.83680000       1.19600000      -0.45400000        6 
C       1.59950000      -0.77130000      -0.28640000        6 
H      -1.64850000      -0.22870000       0.92110000        1 
H       0.76190000       0.08720000       1.51720000        1 
H       0.33430000      -1.62780000       1.23570000        1 
H       1.84830000       0.21780000      -0.72340000        1 
H       2.50750000      -1.16140000       0.21990000        1 
H       1.32140000      -1.47660000      -1.09750000        1 
H      -0.40170000       2.04060000       0.46460000        1 
H      -1.85810000       1.50650000      -0.76110000        1 
H      -0.17660000       1.24830000      -1.34480000        1 
H      -1.54400000      -1.95730000      -0.44980000        1 
H      -0.22690000       2.91210000       0.81210000        1 
