22
Properties=species:S:1:pos:R:3:Z:I:1 pbc="F F F"
O       0.10100000       0.42930000       1.20750000        8 
O       3.93250000      -1.67590000       0.44010000        8 
O       1.03800000      -0.49670000       1.29900000        8 
C      -0.94100000      -0.12280000       0.43640000        6 
C      -1.74220000       1.03500000      -0.18740000        6 
C      -1.82640000      -1.00400000       1.32960000        6 
C      -2.75620000       0.56770000      -1.23260000        6 
C       3.84970000       0.33450000      -0.79490000        6 
C       3.30200000      -0.66670000       0.16860000        6 
H      -0.52930000      -0.74350000      -0.39600000        1 
H      -1.03110000       1.72870000      -0.68730000        1 
H      -2.26760000       1.60980000       0.60650000        1 
H      -3.57490000      -0.01060000      -0.75700000        1 
H      -3.20570000       1.45250000      -1.73080000        1 
H      -2.26020000      -0.05700000      -2.00540000        1 
H      -2.60250000      -1.52050000       0.72810000        1 
H      -1.21070000      -1.78540000       1.82300000        1 
H      -2.31760000      -0.39270000       2.11650000        1 
H       4.84230000       0.01310000      -1.17680000        1 
H       3.95650000       1.31410000      -0.28480000        1 
H       3.14960000       0.44300000      -1.64870000        1 
H       2.09360000      -0.45170000       0.74620000        1 
