17
Properties=species:S:1:pos:R:3:Z:I:1 pbc="F F F"
O       1.16630000       2.26360000       0.66370000        8 
C       1.58360000      -0.04930000       0.75890000        6 
C       1.16270000      -1.37170000       0.11740000        6 
C      -0.16130000       1.08910000      -0.87800000        6 
C       0.87780000       1.16830000       0.20620000        6 
C      -2.37250000      -0.16920000      -0.03320000        6 
H       2.67800000       0.07980000       0.61500000        1 
H       1.38750000      -0.10780000       1.85120000        1 
H       0.08100000      -1.55920000       0.28330000        1 
H       1.73400000      -2.20330000       0.58110000        1 
H       1.38170000      -1.36460000      -0.97110000        1 
H      -1.15100000       0.37780000      -0.48390000        1 
H      -0.53990000       2.10280000      -1.13000000        1 
H       0.27870000       0.64430000      -1.79440000        1 
H      -2.29090000      -1.25680000       0.16950000        1 
H      -2.70400000       0.35460000       0.88690000        1 
H      -3.11170000       0.00170000      -0.84260000        1 
