17
Properties=species:S:1:pos:R:3:Z:I:1 pbc="F F F"
O       1.41990000      -0.26350000      -1.19930000        8 
O       2.89870000       1.05500000      -0.02310000        8 
O       2.72980000       2.08890000       0.77340000        8 
C       0.19420000      -0.59700000      -0.60540000        6 
C      -0.63760000       0.67970000      -0.37520000        6 
C       0.44410000      -1.37670000       0.69040000        6 
C      -2.08940000       0.38000000      -0.00140000        6 
H      -0.35070000      -1.26010000      -1.31220000        1 
H      -0.17490000       1.30310000       0.42070000        1 
H      -0.63970000       1.27730000      -1.31290000        1 
H      -2.14660000      -0.10570000       0.99460000        1 
H      -2.66200000       1.33020000       0.04470000        1 
H      -2.55940000      -0.27830000      -0.76270000        1 
H      -0.50550000      -1.79420000       1.08480000        1 
H       1.13220000      -2.22520000       0.48970000        1 
H       0.90260000      -0.72220000       1.46210000        1 
H       2.04410000       0.50860000      -0.36810000        1 
