21
Properties=species:S:1:pos:R:3:Z:I:1 pbc="F F F"
O       0.15020000       0.96880000       0.52830000        8 
O       3.39380000       0.99720000       0.06130000        8 
O       2.27070000       0.31900000      -0.07480000        8 
C      -0.81870000       0.02190000       0.17300000        6 
C      -2.14190000       0.75320000      -0.11340000        6 
C      -0.95910000      -1.00110000       1.30490000        6 
C      -3.19910000      -0.15460000      -0.74260000        6 
C       4.37940000       0.23110000      -0.57430000        6 
H      -0.48690000      -0.50270000      -0.75130000        1 
H      -2.54520000       1.19750000       0.82290000        1 
H      -1.94090000       1.58720000      -0.82100000        1 
H      -2.79590000      -0.65070000      -1.65090000        1 
H      -3.53830000      -0.92450000      -0.01920000        1 
H      -4.08040000       0.45410000      -1.03550000        1 
H      -1.63720000      -1.82700000       1.00650000        1 
H      -1.35300000      -0.51540000       2.22330000        1 
H       0.03220000      -1.44480000       1.53680000        1 
H       4.47780000      -0.76370000      -0.08620000        1 
H       5.35280000       0.75680000      -0.49080000        1 
H       4.14270000       0.10610000      -1.65410000        1 
H       1.29660000       0.39160000       0.35720000        1 
