19
Properties=species:S:1:pos:R:3:Z:I:1 pbc="F F F"
O      -0.51650000       0.96090000      -1.19910000        8 
C       0.05670000       0.06300000      -0.28060000        6 
C      -0.63020000       0.15280000       1.09750000        6 
C       0.10210000      -1.36600000      -0.84110000        6 
C      -2.11840000      -0.20340000       1.08480000        6 
C       2.48850000       1.07990000      -0.45390000        6 
H       1.25580000       0.42020000      -0.10840000        1 
H      -0.51940000       1.19020000       1.48060000        1 
H      -0.10610000      -0.51970000       1.81070000        1 
H      -2.27350000      -1.25010000       0.75190000        1 
H      -2.68510000       0.48750000       0.42690000        1 
H      -2.52500000      -0.10750000       2.11370000        1 
H      -0.91440000      -1.73410000      -1.09210000        1 
H       0.71650000      -1.38020000      -1.76580000        1 
H       0.56590000      -2.05260000      -0.10180000        1 
H       3.20440000       0.31600000      -0.82100000        1 
H       2.47940000       1.94320000      -1.15060000        1 
H       2.79780000       1.42210000       0.55500000        1 
H      -1.37860000       0.57800000      -1.50680000        1 
