15
Properties=species:S:1:pos:R:3:Z:I:1 pbc="F F F"
O      -0.11270000      -0.25080000      -1.91600000        8 
O       3.05270000       1.06150000       0.06740000        8 
C      -1.29930000      -0.48620000       0.11150000        6 
C      -1.92500000       0.90400000       0.16270000        6 
C       1.29900000      -0.75990000      -0.10720000        6 
C      -0.04220000      -0.48040000      -0.71810000        6 
H      -2.02470000      -1.20240000      -0.33080000        1 
H      -1.08460000      -0.81940000       1.14940000        1 
H      -2.20550000       1.24130000      -0.85800000        1 
H      -1.21090000       1.63040000       0.60650000        1 
H      -2.84070000       0.87650000       0.79020000        1 
H       1.99670000       0.14640000      -0.27890000        1 
H       1.74510000      -1.65690000      -0.58560000        1 
H       1.21850000      -0.94210000       0.98470000        1 
H       3.43350000       0.73790000       0.92230000        1 
