18
Properties=species:S:1:pos:R:3:Z:I:1 pbc="F F F"
O       2.55260000      -0.32120000       0.28230000        8 
O      -0.50610000      -2.00240000       0.45050000        8 
C      -2.37200000      -0.64210000       0.00050000        6 
C      -2.74840000       0.79510000      -0.36040000        6 
C       0.13830000       0.20620000      -0.01630000        6 
C       3.90940000      -0.00750000       0.22270000        6 
C      -0.88710000      -0.87850000       0.16200000        6 
H      -2.87970000      -0.91210000       0.95140000        1 
H      -2.75430000      -1.31770000      -0.79460000        1 
H      -2.29270000       1.08580000      -1.33030000        1 
H      -3.85190000       0.87290000      -0.45770000        1 
H      -2.41940000       1.49600000       0.43550000        1 
H       1.25660000      -0.23420000       0.16620000        1 
H      -0.03990000       1.02110000       0.71540000        1 
H       0.08670000       0.61140000      -1.04810000        1 
H       4.17220000       0.65970000       1.06920000        1 
H       4.12820000       0.50700000      -0.73550000        1 
H       4.50750000      -0.93960000       0.28700000        1 
