14
Properties=species:S:1:pos:R:3:Z:I:1 pbc="F F F"
O      -2.06430000      -0.98660000      -0.39960000        8 
O       1.94190000       1.79610000      -0.24660000        8 
C       0.17800000      -1.06230000       0.33450000        6 
C       1.26250000      -0.57980000      -0.62290000        6 
C      -1.30680000       1.09210000       0.39740000        6 
C      -1.12740000      -0.36120000       0.07280000        6 
H       0.49470000      -0.87720000       1.38310000        1 
H       0.05050000      -2.15940000       0.20370000        1 
H       1.48650000       0.65170000      -0.45650000        1 
H       0.95370000      -0.75770000      -1.67530000        1 
H       2.20290000      -1.13780000      -0.42960000        1 
H      -0.39230000       1.51250000       0.86560000        1 
H      -1.52720000       1.65650000      -0.53280000        1 
H      -2.15270000       1.21300000       1.10620000        1 
