22
Properties=species:S:1:pos:R:3:Z:I:1 pbc="F F F"
O      -1.68210000       0.80380000       1.57370000        8 
C      -0.99930000       1.13120000       0.39020000        6 
C      -1.35850000       0.13280000      -0.72360000        6 
C      -1.38660000       2.55070000      -0.02230000        6 
C      -0.86600000      -1.27650000      -0.40560000        6 
C       2.72910000      -0.94980000       0.48190000        6 
C       1.72220000      -1.65100000      -0.41090000        6 
H       0.10460000       1.11950000       0.55670000        1 
H      -0.88770000       0.45660000      -1.67750000        1 
H      -2.46060000       0.10910000      -0.87070000        1 
H       0.44620000      -1.26650000      -0.19740000        1 
H      -1.38010000      -1.67630000       0.49380000        1 
H      -1.08510000      -1.94830000      -1.26210000        1 
H      -2.47980000       2.61670000      -0.21090000        1 
H      -0.84030000       2.84840000      -0.94280000        1 
H      -1.12140000       3.26270000       0.78790000        1 
H       2.53680000      -1.21800000       1.54160000        1 
H       3.75940000      -1.25880000       0.20590000        1 
H       2.63070000       0.14910000       0.36200000        1 
H       1.90260000      -1.38080000      -1.47270000        1 
H       1.80840000      -2.75150000      -0.29000000        1 
H      -1.09240000       0.19690000       2.09270000        1 
