17
Properties=species:S:1:pos:R:3:Z:I:1 pbc="F F F"
O       0.44230000      -0.08810000       1.60800000        8 
O       1.60100000       1.72940000      -0.69790000        8 
C       0.37300000      -0.33710000       0.22790000        6 
C      -1.09540000      -0.32630000      -0.22460000        6 
C       1.01810000      -1.69040000      -0.08140000        6 
C      -1.73650000       1.04690000      -0.03330000        6 
H       0.93660000       0.47000000      -0.34410000        1 
H      -1.15540000      -0.59370000      -1.30240000        1 
H      -1.67410000      -1.08060000       0.35260000        1 
H      -2.78630000       1.01960000      -0.39430000        1 
H      -1.18260000       1.81600000      -0.61270000        1 
H      -1.74070000       1.32870000       1.04090000        1 
H       2.08260000      -1.68200000       0.23520000        1 
H       0.49100000      -2.50490000       0.46020000        1 
H       0.98030000      -1.89490000      -1.17270000        1 
H       1.37180000       0.20380000       1.79930000        1 
H       2.07450000       2.58370000      -0.86090000        1 
