18
Properties=species:S:1:pos:R:3:Z:I:1 pbc="F F F"
O      -1.48620000      -0.92600000       1.77290000        8 
C      -1.23740000      -0.91090000      -0.57510000        6 
C       0.01020000      -0.29250000      -1.19620000        6 
C      -2.02770000       1.15710000       0.81300000        6 
C      -1.56830000      -0.26970000       0.74550000        6 
C       3.04010000       0.41220000       0.48080000        6 
C       2.31370000      -0.60750000       0.03230000        6 
H      -1.05790000      -1.99870000      -0.43030000        1 
H      -2.09740000      -0.79550000      -1.26900000        1 
H       0.98280000      -0.36450000      -0.38460000        1 
H      -0.17130000       0.76990000      -1.46280000        1 
H       0.27650000      -0.84480000      -2.12200000        1 
H      -1.22420000       1.83280000       0.45450000        1 
H      -2.28290000       1.43670000       1.85750000        1 
H      -2.92880000       1.28980000       0.17860000        1 
H       4.11470000       0.31200000       0.59490000        1 
H       2.55700000       1.34930000       0.73420000        1 
H       2.78700000      -1.54970000      -0.22410000        1 
