29
Properties=species:S:1:pos:R:3:Z:I:1 pbc="F F F"
O       0.68340000      -0.13260000       1.20680000        8 
O      -0.10350000      -0.96520000       0.55000000        8 
C       1.73590000       0.20400000       0.33300000        6 
C       2.81320000      -0.90150000       0.37190000        6 
C      -2.18360000      -0.26940000      -0.69500000        6 
C      -3.29550000       0.25020000       0.22070000        6 
C       2.30280000       1.55760000       0.77050000        6 
C       3.89270000      -0.71830000      -0.69540000        6 
C      -1.69500000       0.82020000      -1.64320000        6 
C      -3.77050000      -0.83960000       1.17620000        6 
H       1.35860000       0.32510000      -0.71140000        1 
H       2.32780000      -1.88610000       0.19760000        1 
H       3.28860000      -0.93770000       1.37650000        1 
H      -1.15030000      -0.68750000       0.04870000        1 
H      -2.55960000      -1.12750000      -1.29400000        1 
H      -4.15710000       0.59450000      -0.39190000        1 
H      -2.91790000       1.11000000       0.81580000        1 
H       4.51130000       0.17740000      -0.48080000        1 
H       3.43250000      -0.61980000      -1.70150000        1 
H       4.56150000      -1.60470000      -0.69910000        1 
H       1.48370000       2.30610000       0.82230000        1 
H       2.77360000       1.47940000       1.77380000        1 
H       3.05240000       1.92690000       0.04040000        1 
H      -0.88940000       0.41300000      -2.28930000        1 
H      -1.28760000       1.67700000      -1.06590000        1 
H      -2.52720000       1.17260000      -2.28920000        1 
H      -2.93150000      -1.18330000       1.81790000        1 
H      -4.57430000      -0.43750000       1.82830000        1 
H      -4.17470000      -1.70340000       0.60630000        1 
