19
Properties=species:S:1:pos:R:3:Z:I:1 pbc="F F F"
O      -1.42810000       2.20750000      -0.37740000        8 
C      -0.72820000       1.07130000       0.05870000        6 
C      -1.53310000      -0.19380000      -0.30020000        6 
C       0.65580000       1.07360000      -0.59360000        6 
C      -0.94680000      -1.46680000       0.31030000        6 
C       2.32840000      -0.72800000       0.47270000        6 
H      -0.58690000       1.12300000       1.16370000        1 
H      -1.59540000      -0.30780000      -1.40460000        1 
H      -2.57030000      -0.07760000       0.08320000        1 
H      -1.64390000      -2.31360000       0.13680000        1 
H       0.02360000      -1.71940000      -0.16460000        1 
H      -0.80540000      -1.34510000       1.40520000        1 
H       1.41180000       0.15220000      -0.07090000        1 
H       0.57420000       0.90980000      -1.68940000        1 
H       1.14980000       2.05310000      -0.41840000        1 
H       2.41220000      -1.60620000       1.14540000        1 
H       3.25470000      -0.12120000       0.53950000        1 
H       2.18770000      -1.07440000      -0.57180000        1 
H      -2.16010000       2.36340000       0.27540000        1 
