15
Properties=species:S:1:pos:R:3:Z:I:1 pbc="F F F"
O      -0.58730000       1.10780000      -1.50230000        8 
O       2.87520000      -0.76960000       0.02540000        8 
O       3.65770000      -1.81120000       0.21150000        8 
C      -0.85870000      -0.25350000       0.43440000        6 
C      -2.23430000      -0.62840000      -0.11650000        6 
C       1.26270000       1.16130000      -0.04670000        6 
C      -0.10320000       0.70310000      -0.45480000        6 
H      -0.98860000       0.21190000       1.43500000        1 
H      -0.25800000      -1.18000000       0.55820000        1 
H      -2.73500000      -1.33120000       0.58230000        1 
H      -2.86810000       0.27800000      -0.22140000        1 
H      -2.13190000      -1.12510000      -1.10500000        1 
H       2.07660000       0.09380000       0.07830000        1 
H       1.20330000       1.69120000       0.92690000        1 
H       1.68970000       1.85180000      -0.80530000        1 
