21
Properties=species:S:1:pos:R:3:Z:I:1 pbc="F F F"
O      -2.68920000       0.77380000      -1.78980000        8 
O       3.49620000      -0.36620000       0.52860000        8 
O       2.24900000       0.06090000       0.57160000        8 
C      -2.16530000      -0.20600000      -0.92910000        6 
C      -0.73050000       0.17340000      -0.50620000        6 
C      -3.09970000      -0.40210000       0.27280000        6 
C       0.00500000      -0.97060000       0.18920000        6 
C       4.29390000       0.77490000       0.68310000        6 
H      -2.12880000      -1.16130000      -1.49680000        1 
H      -0.74810000       1.05910000       0.16530000        1 
H      -0.15170000       0.44970000      -1.41380000        1 
H       1.30600000      -0.60230000       0.40120000        1 
H      -0.45640000      -1.19510000       1.17300000        1 
H      -0.00560000      -1.88320000      -0.44390000        1 
H      -4.13670000      -0.57680000      -0.08470000        1 
H      -2.79110000      -1.28580000       0.86880000        1 
H      -3.09510000       0.49770000       0.92420000        1 
H       4.11280000       1.49470000      -0.14560000        1 
H       4.09550000       1.26180000       1.66340000        1 
H       5.36140000       0.47390000       0.65450000        1 
H      -2.72180000       1.62940000      -1.28590000        1 
