20
Properties=species:S:1:pos:R:3:Z:I:1 pbc="F F F"
O      -1.91380000      -1.50000000      -1.18060000        8 
C      -1.44530000       0.65830000      -0.34070000        6 
C      -2.83400000       0.98680000       0.19800000        6 
C      -0.18880000      -1.49060000       0.42590000        6 
C       2.69610000       0.84250000      -0.15420000        6 
C      -1.23490000      -0.82860000      -0.41800000        6 
C       2.29670000      -0.60750000       0.04750000        6 
H      -1.32590000       1.09850000      -1.35390000        1 
H      -0.68400000       1.11880000       0.32580000        1 
H      -2.95650000       2.08860000       0.26210000        1 
H      -3.61790000       0.58230000      -0.47740000        1 
H      -2.96470000       0.55450000       1.21320000        1 
H       0.98440000      -0.98620000       0.14240000        1 
H      -0.16510000      -2.58510000       0.23650000        1 
H      -0.41210000      -1.31690000       1.49930000        1 
H       2.32830000       1.45160000       0.69770000        1 
H       2.24690000       1.22480000      -1.09430000        1 
H       3.80170000       0.92560000      -0.21490000        1 
H       2.65360000      -1.22230000      -0.80550000        1 
H       2.73530000      -0.99490000       0.99120000        1 
