14
Properties=species:S:1:pos:R:3:Z:I:1 pbc="F F F"
O       0.60960000      -1.12630000      -1.66280000        8 
O       2.94790000       1.55970000      -0.26800000        8 
C      -1.09570000      -0.66150000      -0.09700000        6 
C      -1.55640000       0.78360000       0.06910000        6 
C       1.45580000      -0.32450000       0.37860000        6 
C       0.34130000      -0.72710000      -0.54010000        6 
H      -1.21170000      -1.20560000       0.86470000        1 
H      -1.74600000      -1.15730000      -0.85070000        1 
H      -1.44040000       1.33650000      -0.88760000        1 
H      -0.96870000       1.29420000       0.86090000        1 
H      -2.62770000       0.79970000       0.36070000        1 
H       2.07650000       0.63050000      -0.11740000        1 
H       1.06460000      -0.02290000       1.37280000        1 
H       2.15090000      -1.17900000       0.51680000        1 
