19
Properties=species:S:1:pos:R:3:Z:I:1 pbc="F F F"
O       0.66240000      -1.17510000       0.90290000        8 
C      -0.45490000      -0.80290000       0.14060000        6 
C      -0.92850000       0.60300000       0.55920000        6 
C      -0.11460000      -0.88810000      -1.35200000        6 
C      -2.29990000       0.96020000      -0.01420000        6 
C       2.74950000       0.10730000       0.60970000        6 
H      -1.26440000      -1.53410000       0.35520000        1 
H      -0.99850000       0.63950000       1.66830000        1 
H      -0.18740000       1.36930000       0.24290000        1 
H      -2.25010000       1.06210000      -1.11800000        1 
H      -2.63410000       1.93160000       0.40730000        1 
H      -3.04790000       0.18380000       0.25330000        1 
H      -1.02850000      -0.76360000      -1.96920000        1 
H       0.62400000      -0.10720000      -1.63280000        1 
H       0.31800000      -1.88510000      -1.58070000        1 
H       2.77870000       1.21360000       0.68640000        1 
H       3.25100000      -0.33800000       1.49350000        1 
H       3.27410000      -0.21340000      -0.31370000        1 
H       1.55110000      -0.36310000       0.66110000        1 
