15
Properties=species:S:1:pos:R:3:Z:I:1 pbc="F F F"
O      -2.36810000      -0.55890000      -1.17470000        8 
O       2.60790000       0.68500000      -0.28170000        8 
C      -0.43370000      -1.24880000      -0.03850000        6 
C       0.78160000      -0.72820000       0.72600000        6 
C      -1.20400000       1.29480000      -0.34900000        6 
C      -1.38510000      -0.18740000      -0.55230000        6 
H      -0.99920000      -1.93450000       0.62880000        1 
H      -0.07120000      -1.84380000      -0.90430000        1 
H       1.43800000      -0.03890000       0.03350000        1 
H       0.46210000      -0.17120000       1.63240000        1 
H       1.40650000      -1.58680000       1.05090000        1 
H      -0.29550000       1.55610000       0.22500000        1 
H      -2.08220000       1.69870000       0.19680000        1 
H      -1.14040000       1.79430000      -1.33840000        1 
H       3.28340000       1.26970000       0.14550000        1 
