21
Properties=species:S:1:pos:R:3:Z:I:1 pbc="F F F"
O      -2.32970000      -1.49340000       0.50230000        8 
O       3.13030000       0.11470000      -1.19020000        8 
O       1.95560000      -0.16420000      -0.65900000        8 
C      -1.28630000      -0.72160000      -0.03410000        6 
C      -1.52800000       0.76250000       0.27940000        6 
C       0.04740000      -1.17870000       0.55870000        6 
C      -2.79680000       1.28400000      -0.39280000        6 
C       3.97750000       0.39750000      -0.11100000        6 
H      -1.24190000      -0.85050000      -1.14090000        1 
H      -0.66680000       1.36580000      -0.08280000        1 
H      -1.61440000       0.90720000       1.37880000        1 
H      -2.92170000       2.36310000      -0.16270000        1 
H      -3.68860000       0.73840000      -0.01800000        1 
H      -2.72800000       1.16230000      -1.49480000        1 
H       1.07080000      -0.43380000       0.03800000        1 
H       0.04060000      -1.06730000       1.66420000        1 
H       0.22730000      -2.24560000       0.30780000        1 
H       4.06670000      -0.48610000       0.55900000        1 
H       4.98720000       0.64100000      -0.50090000        1 
H       3.60390000       1.27550000       0.46080000        1 
H      -2.30530000      -2.37080000       0.03820000        1 
