16
Properties=species:S:1:pos:R:3:Z:I:1 pbc="F F F"
O      -0.08230000       0.18500000       1.46710000        8 
C      -0.41580000       0.17660000       0.10590000        6 
C       0.62700000      -0.63500000      -0.67810000        6 
C      -1.81050000      -0.42540000      -0.07220000        6 
C       2.01180000       0.00630000      -0.61020000        6 
H      -0.42840000       1.22040000      -0.28240000        1 
H       0.68520000      -1.66830000      -0.27100000        1 
H       0.32300000      -0.69980000      -1.74590000        1 
H       2.72870000      -0.59500000      -1.20820000        1 
H       2.37290000       0.04340000       0.43940000        1 
H       1.98120000       1.03640000      -1.02490000        1 
H      -2.55690000       0.17740000       0.48730000        1 
H      -2.09610000      -0.42520000      -1.14580000        1 
H      -1.83510000      -1.46830000       0.31050000        1 
H      -0.71710000       1.13230000       1.97390000        1 
H      -0.78760000       1.93940000       2.25440000        1 
