16
Properties=species:S:1:pos:R:3:Z:I:1 pbc="F F F"
O      -0.96300000      -1.50730000      -0.65080000        8 
O       1.03890000       2.40330000       0.96980000        8 
C      -0.73180000      -0.35570000       0.12240000        6 
C       0.70000000       0.17350000      -0.08210000        6 
C      -1.76810000       0.72310000      -0.20730000        6 
C       1.74930000      -0.85190000       0.33990000        6 
H      -0.85840000      -0.62750000       1.19310000        1 
H       0.85920000       1.19260000       0.59530000        1 
H       0.86000000       0.44060000      -1.14970000        1 
H       1.67200000      -1.76760000      -0.28370000        1 
H       2.76290000      -0.41870000       0.20770000        1 
H       1.61600000      -1.12160000       1.40910000        1 
H      -1.66680000       1.05360000      -1.26330000        1 
H      -1.63390000       1.60120000       0.45990000        1 
H      -2.79170000       0.31980000      -0.05540000        1 
H      -0.84470000      -1.25730000      -1.60480000        1 
