22
Properties=species:S:1:pos:R:3:Z:I:1 pbc="F F F"
O      -0.74470000      -1.34500000      -0.89880000        8 
C      -0.79880000      -0.31770000       0.05940000        6 
C      -2.25020000       0.13570000       0.30900000        6 
C       0.07960000       0.85810000      -0.37610000        6 
C      -3.11630000      -1.00460000       0.84010000        6 
C       3.32400000       0.25060000       0.43860000        6 
C       2.63160000       0.58370000      -0.86990000        6 
H      -0.38120000      -0.71210000       1.01130000        1 
H      -2.25710000       0.95940000       1.05610000        1 
H      -2.69630000       0.52290000      -0.63320000        1 
H      -3.17680000      -1.82640000       0.09550000        1 
H      -4.14320000      -0.63030000       1.03580000        1 
H      -2.69580000      -1.39900000       1.78960000        1 
H       1.31910000       0.42990000      -0.58950000        1 
H      -0.30940000       1.31250000      -1.31250000        1 
H       0.10560000       1.63380000       0.41880000        1 
H       4.34310000      -0.14220000       0.23840000        1 
H       2.73620000      -0.51540000       0.98600000        1 
H       3.39900000       1.16500000       1.06310000        1 
H       2.54480000      -0.32840000      -1.49710000        1 
H       3.20930000       1.35640000      -1.41970000        1 
H      -1.12260000      -0.98710000      -1.74480000        1 
