14
Properties=species:S:1:pos:R:3:Z:I:1 pbc="F F F"
O       2.75710000       0.85100000      -1.25960000        8 
C      -1.08620000      -0.41470000      -0.41060000        6 
C       0.21060000      -1.10910000      -0.01130000        6 
C      -1.38070000       0.76920000       0.50440000        6 
C       2.24700000       0.65010000      -0.17040000        6 
H      -0.99960000      -0.05540000      -1.45840000        1 
H      -1.92530000      -1.14130000      -0.35480000        1 
H       1.24810000      -0.23630000      -0.08910000        1 
H       0.40580000      -1.95820000      -0.69970000        1 
H       0.13600000      -1.50070000       1.02560000        1 
H      -2.32820000       1.25500000       0.18950000        1 
H      -0.56130000       1.51680000       0.44440000        1 
H      -1.48950000       0.42690000       1.55570000        1 
H       2.76610000       0.94650000       0.73440000        1 
