13
Properties=species:S:1:pos:R:3:Z:I:1 pbc="F F F"
O       2.34830000      -0.33840000       0.21580000        8 
O       3.29840000      -1.24720000       0.27240000        8 
C      -0.85900000       0.45380000       0.39290000        6 
C       0.32280000       1.05830000      -0.35640000        6 
C      -1.13890000      -0.96940000      -0.07780000        6 
H      -0.63330000       0.44230000       1.48070000        1 
H      -1.76090000       1.08140000       0.22590000        1 
H       1.44500000       0.30290000      -0.14810000        1 
H       0.10720000       1.10480000      -1.44520000        1 
H       0.51140000       2.08800000       0.01390000        1 
H      -2.00180000      -1.38360000       0.48500000        1 
H      -0.25410000      -1.61660000       0.10180000        1 
H      -1.38520000      -0.97630000      -1.16110000        1 
