12
Properties=species:S:1:pos:R:3:Z:I:1 pbc="F F F"
O       1.99650000      -1.51090000       0.85680000        8 
C       0.15610000      -0.29970000      -0.34860000        6 
C      -1.17550000      -0.55140000       0.35100000        6 
C       0.53030000       1.17830000      -0.31450000        6 
H       1.03880000      -0.95420000       0.21300000        1 
H       0.08570000      -0.63680000      -1.40530000        1 
H      -1.98900000       0.01390000      -0.15180000        1 
H      -1.41600000      -1.63440000       0.30980000        1 
H      -1.11510000      -0.24120000       1.41580000        1 
H       1.50300000       1.32550000      -0.82900000        1 
H      -0.24270000       1.78470000      -0.83310000        1 
H       0.62790000       1.52620000       0.73580000        1 
