13
Properties=species:S:1:pos:R:3:Z:I:1 pbc="F F F"
O       2.49920000       0.42880000      -0.44720000        8 
C      -0.68300000      -0.30710000       0.63600000        6 
C       0.41200000      -0.99970000      -0.16870000        6 
C      -1.31790000       0.83000000      -0.15830000        6 
H      -1.46570000      -1.04880000       0.90520000        1 
H      -0.24660000       0.09950000       1.57350000        1 
H       1.26100000      -0.23280000      -0.44520000        1 
H      -0.00930000      -1.43330000      -1.10070000        1 
H       0.85570000      -1.81890000       0.43560000        1 
H      -2.10900000       1.31330000       0.45280000        1 
H      -0.55350000       1.59320000      -0.41800000        1 
H      -1.77830000       0.43920000      -1.09080000        1 
H       3.13550000       1.13660000      -0.17410000        1 
