16
Properties=species:S:1:pos:R:3:Z:I:1 pbc="F F F"
O       1.71430000       0.49320000      -0.37500000        8 
C      -1.60850000      -0.23720000      -0.73180000        6 
C      -0.26850000      -0.94350000      -0.90790000        6 
C      -1.80110000       0.23070000       0.70710000        6 
C       2.64500000       0.70360000       0.64090000        6 
H      -1.65080000       0.64080000      -1.41160000        1 
H      -2.43000000      -0.93400000      -1.00500000        1 
H       0.65820000      -0.17530000      -0.62640000        1 
H      -0.21530000      -1.83940000      -0.25320000        1 
H      -0.15460000      -1.26720000      -1.96390000        1 
H      -1.78160000      -0.63670000       1.40090000        1 
H      -2.78290000       0.74040000       0.80350000        1 
H      -1.00010000       0.94620000       0.99100000        1 
H       2.12900000       0.69460000       1.62300000        1 
H       3.13940000       1.68560000       0.49200000        1 
H       3.40760000      -0.10180000       0.61650000        1 
