14
Properties=species:S:1:pos:R:3:Z:I:1 pbc="F F F"
C      -0.82760000      -0.53110000       0.07740000        6 
C       0.32300000       0.45430000      -0.09570000        6 
C      -2.05270000      -0.10040000      -0.72330000        6 
C       2.66420000       0.02400000       0.96450000        6 
H      -0.50080000      -1.53710000      -0.26270000        1 
H      -1.09520000      -0.59420000       1.15400000        1 
H       1.33340000       0.05480000       0.59410000        1 
H       0.62230000       0.51500000      -1.16380000        1 
H       0.02460000       1.46330000       0.26080000        1 
H      -1.80860000      -0.05220000      -1.80600000        1 
H      -2.87030000      -0.83710000      -0.57600000        1 
H      -2.40620000       0.89580000      -0.38170000        1 
H       3.42890000      -0.66000000       0.54240000        1 
H       3.16500000       0.90490000       1.41610000        1 
