14
Properties=species:S:1:pos:R:3:Z:I:1 pbc="F F F"
C      -0.17000000       0.25220000      -0.43490000        6 
C      -1.25960000      -0.81360000      -0.48240000        6 
C      -0.55000000       1.39330000       0.50260000        6 
C       2.14320000      -0.82610000       0.33610000        6 
H       0.90210000      -0.27110000      -0.03460000        1 
H      -0.00530000       0.65560000      -1.45730000        1 
H      -2.21170000      -0.37680000      -0.85240000        1 
H      -1.42020000      -1.24440000       0.52870000        1 
H      -0.95000000      -1.62820000      -1.17020000        1 
H       0.26410000       2.14790000       0.51520000        1 
H      -0.69520000       1.01040000       1.53500000        1 
H      -1.48510000       1.88300000       0.15620000        1 
H       2.84870000      -1.12320000      -0.46690000        1 
H       2.58910000      -1.05900000       1.32490000        1 
