14
Properties=species:S:1:pos:R:3:Z:I:1 pbc="F F F"
C      -1.06020000       0.13030000      -0.78780000        6 
C      -0.01370000      -0.92470000      -0.44350000        6 
C      -1.74900000       0.65730000       0.46720000        6 
C       3.44730000       0.24230000       0.75640000        6 
C       2.41680000      -0.36800000       0.89240000        6 
H      -0.56890000       0.97430000      -1.31830000        1 
H      -1.82110000      -0.31480000      -1.46460000        1 
H       0.79070000      -0.47820000       0.23640000        1 
H       0.46950000      -1.28680000      -1.37540000        1 
H      -0.48980000      -1.78790000       0.06860000        1 
H      -2.26440000      -0.16970000       1.00060000        1 
H      -1.00610000       1.12610000       1.14720000        1 
H      -2.50310000       1.42150000       0.18390000        1 
H       4.35210000       0.77830000       0.63700000        1 
