14
Properties=species:S:1:pos:R:3:Z:I:1 pbc="F F F"
C      -0.46080000       0.35250000      -0.38570000        6 
C      -0.56970000       0.73230000       1.08780000        6 
C      -1.53990000      -0.65090000      -0.78080000        6 
C       3.30280000      -0.47670000       0.01120000        6 
C       2.32380000      -0.19860000      -0.63470000        6 
H       0.54360000      -0.09260000      -0.57770000        1 
H      -0.56440000       1.26690000      -1.00880000        1 
H       0.22750000       1.46190000       1.34320000        1 
H      -1.55690000       1.19790000       1.29440000        1 
H      -0.44660000      -0.16710000       1.72820000        1 
H      -1.43880000      -1.58160000      -0.18270000        1 
H      -1.43370000      -0.90640000      -1.85610000        1 
H      -2.54920000      -0.21670000      -0.61670000        1 
H       4.16240000      -0.72090000       0.57840000        1 
