12
Properties=species:S:1:pos:R:3:Z:I:1 pbc="F F F"
O       0.54920000      -0.99910000       1.52840000        8 
O       2.98410000       0.49180000       0.00180000        8 
C      -0.53030000      -0.44190000      -0.50110000        6 
C      -1.75310000       0.25540000       0.08620000        6 
C       0.62020000      -0.41460000       0.45890000        6 
H      -0.78210000      -1.49580000      -0.74690000        1 
H      -0.23300000       0.07520000      -1.43830000        1 
H      -2.57970000       0.24170000      -0.65510000        1 
H      -2.09340000      -0.26760000       1.00540000        1 
H      -1.51320000       1.31210000       0.33190000        1 
H       1.59540000       0.15840000       0.17990000        1 
H       3.73600000       1.08450000      -0.25120000        1 
