21
Properties=species:S:1:pos:R:3:Z:I:1 pbc="F F F"
O      -2.08310000      -2.34110000      -0.11820000        8 
C      -3.02830000      -0.20860000       0.26910000        6 
C       1.90570000      -0.74330000      -0.02650000        6 
C      -2.77370000       0.95380000      -0.68230000        6 
C       2.85780000       0.37860000      -0.33800000        6 
C      -1.89250000      -1.18380000       0.21980000        6 
C       0.55550000      -0.19160000       0.40790000        6 
C       4.00220000       0.54220000       0.33190000        6 
H      -3.12570000       0.17760000       1.30580000        1 
H      -3.98050000      -0.71020000      -0.01060000        1 
H       1.76800000      -1.36260000      -0.93760000        1 
H       2.29970000      -1.39970000       0.77960000        1 
H      -1.84190000       1.48860000      -0.39880000        1 
H      -2.68210000       0.58420000      -1.72620000        1 
H      -3.62230000       1.66820000      -0.63140000        1 
H       2.60820000       1.07320000      -1.13510000        1 
H      -0.67890000      -0.79150000       0.54600000        1 
H       0.65870000       0.41550000       1.33270000        1 
H       0.10050000       0.42070000      -0.39990000        1 
H       4.66600000       1.36220000       0.07790000        1 
H       4.28660000      -0.13220000       1.13380000        1 
