15
Properties=species:S:1:pos:R:3:Z:I:1 pbc="F F F"
O       2.16390000      -0.39020000      -0.04520000        8 
O      -0.41930000      -2.10300000       0.67770000        8 
C      -1.38880000      -0.40760000      -0.65650000        6 
C      -2.32460000       0.18680000       0.39100000        6 
C       2.84720000       0.81670000       0.09360000        6 
C      -0.23440000      -1.11260000      -0.01190000        6 
H      -1.94860000      -1.12270000      -1.29660000        1 
H      -0.99940000       0.40920000      -1.30070000        1 
H      -2.75690000      -0.61660000       1.02500000        1 
H      -3.15470000       0.72340000      -0.11490000        1 
H      -1.77510000       0.90710000       1.03420000        1 
H       3.74370000       0.81140000      -0.56000000        1 
H       2.18130000       1.65440000      -0.19880000        1 
H       3.16060000       0.94480000       1.15010000        1 
H       0.90500000      -0.70120000      -0.18680000        1 
