13
Properties=species:S:1:pos:R:3:Z:I:1 pbc="F F F"
O      -2.68760000      -0.33180000      -1.18170000        8 
O       3.48520000      -0.72410000       0.34230000        8 
C      -0.93120000       0.51420000       0.15770000        6 
C       0.12780000      -0.52620000      -0.18710000        6 
C      -2.31230000      -0.02600000      -0.06100000        6 
C       2.64880000       0.16340000       0.34620000        6 
H      -0.81630000       0.80510000       1.22350000        1 
H      -0.78270000       1.41850000      -0.46990000        1 
H       1.35960000      -0.00790000       0.05430000        1 
H      -0.00590000      -1.43510000       0.43800000        1 
H       0.06360000      -0.80460000      -1.26080000        1 
H      -2.98970000      -0.13690000       0.77950000        1 
H       2.84060000       1.09150000      -0.18090000        1 
