20
Properties=species:S:1:pos:R:3:Z:I:1 pbc="F F F"
O       1.10930000      -1.59880000       0.69340000        8 
C       2.07070000       0.50500000       0.11000000        6 
C       3.43980000      -0.14060000       0.32200000        6 
C      -2.50210000       0.82200000       0.69280000        6 
C      -2.15600000      -0.94960000      -1.06740000        6 
C      -1.53680000       0.22860000      -0.32580000        6 
C       0.92560000      -0.43870000       0.35750000        6 
H       1.96890000       1.37270000       0.79550000        1 
H       2.00320000       0.87750000      -0.93400000        1 
H       3.57530000      -0.99580000      -0.37420000        1 
H       4.23690000       0.60660000       0.12380000        1 
H       3.54070000      -0.49650000       1.36960000        1 
H      -3.41420000       1.20230000       0.18540000        1 
H      -2.78790000       0.05340000       1.44170000        1 
H      -2.00710000       1.66370000       1.22020000        1 
H      -1.41620000      -1.36090000      -1.78520000        1 
H      -2.43580000      -1.74910000      -0.34940000        1 
H      -3.05770000      -0.62290000      -1.62820000        1 
H      -1.22610000       1.01060000      -1.05170000        1 
H      -0.33040000       0.01040000       0.20400000        1 
