19
Properties=species:S:1:pos:R:3:Z:I:1 pbc="F F F"
O       1.64310000       1.09770000       1.43570000        8 
O      -0.69770000      -1.67940000      -0.52700000        8 
O       0.61720000       1.17730000       0.60880000        8 
C      -2.35660000      -0.01900000      -0.81880000        6 
C       2.79870000       1.08970000       0.63540000        6 
C      -3.48620000      -0.70060000      -0.05350000        6 
C       3.06330000      -0.30890000       0.08710000        6 
C      -1.01860000      -0.51320000      -0.36120000        6 
H      -2.47060000      -0.21210000      -1.90700000        1 
H      -2.41210000       1.07710000      -0.64870000        1 
H       2.72890000       1.82580000      -0.19920000        1 
H       3.66200000       1.39030000       1.26600000        1 
H      -3.47300000      -1.79620000      -0.23760000        1 
H      -3.38350000      -0.50960000       1.03620000        1 
H      -4.46230000      -0.29620000      -0.39490000        1 
H       4.01050000      -0.31000000      -0.49250000        1 
H       3.15240000      -1.03450000       0.92320000        1 
H       2.23490000      -0.62290000      -0.58240000        1 
H      -0.15030000       0.34480000       0.23040000        1 
