14
Properties=species:S:1:pos:R:3:Z:I:1 pbc="F F F"
O      -0.59250000       2.28270000       0.89510000        8 
C      -1.36490000       0.08080000       0.51480000        6 
C      -0.54870000      -0.90520000      -0.30990000        6 
C      -1.06230000       1.48740000       0.09710000        6 
C       2.06140000      -0.35510000      -0.26820000        6 
H      -2.44740000      -0.11720000       0.36450000        1 
H      -1.12680000      -0.06070000       1.59160000        1 
H       0.72210000      -0.67900000      -0.14400000        1 
H      -0.77340000      -1.94180000       0.01890000        1 
H      -0.80160000      -0.81080000      -1.38780000        1 
H      -1.26440000       1.80580000      -0.92060000        1 
H       2.01650000       0.62470000       0.25020000        1 
H       2.43350000      -1.12860000       0.43470000        1 
H       2.74850000      -0.28300000      -1.13630000        1 
