13
Properties=species:S:1:pos:R:3:Z:I:1 pbc="F F F"
O      -0.21170000      -1.82310000       0.65450000        8 
O       3.52410000       0.11600000      -0.81370000        8 
C      -0.78000000       0.45580000       0.37610000        6 
C      -1.92840000       0.27640000      -0.61140000        6 
C       0.16180000      -0.70790000       0.32690000        6 
C       2.76560000      -0.23670000       0.07370000        6 
H      -1.18380000       0.56250000       1.40570000        1 
H      -0.22180000       1.38120000       0.11990000        1 
H      -2.52440000      -0.62500000      -0.35320000        1 
H      -1.53500000       0.17310000      -1.64550000        1 
H      -2.59420000       1.16410000      -0.57150000        1 
H       1.43460000      -0.52110000      -0.06890000        1 
H       3.09320000      -0.21530000       1.10730000        1 
