12
Properties=species:S:1:pos:R:3:Z:I:1 pbc="F F F"
O      -2.54230000       0.18880000      -0.73590000        8 
O       2.78160000       0.43180000      -0.18020000        8 
C      -0.55670000       0.16430000       0.54930000        6 
C       0.37800000      -0.42060000      -0.50400000        6 
C      -1.98230000      -0.20800000       0.27370000        6 
H      -0.26430000      -0.22440000       1.54810000        1 
H      -0.45910000       1.27100000       0.56210000        1 
H       1.48940000      -0.13250000      -0.24480000        1 
H       0.29240000      -1.52830000      -0.52300000        1 
H       0.13200000      -0.01540000      -1.50890000        1 
H      -2.52690000      -0.82590000       0.98030000        1 
H       3.25820000       1.29910000      -0.21680000        1 
