23
Properties=species:S:1:pos:R:3:Z:I:1 pbc="F F F"
O       2.75460000       1.84640000      -0.97260000        8 
C      -2.70430000      -0.23930000      -0.59480000        6 
C      -1.24410000      -0.08400000      -0.15650000        6 
C       2.41770000       0.39210000       0.86200000        6 
C      -3.59140000      -0.64260000       0.57940000        6 
C       3.74630000      -0.35400000       0.79710000        6 
C      -0.35730000       0.31860000      -1.32820000        6 
C       2.06060000       0.97670000      -0.47030000        6 
H      -3.07490000       0.72250000      -1.01190000        1 
H      -2.77780000      -1.01790000      -1.38520000        1 
H       2.47980000       1.20400000       1.61800000        1 
H       1.61870000      -0.31490000       1.17060000        1 
H      -0.87010000      -1.04450000       0.25920000        1 
H      -1.16710000       0.69520000       0.63220000        1 
H       3.97160000      -0.79730000       1.78990000        1 
H       3.69310000      -1.17130000       0.04640000        1 
H       4.56870000       0.34180000       0.52530000        1 
H      -4.64120000      -0.74760000       0.23320000        1 
H      -3.25700000      -1.61510000       0.99950000        1 
H      -3.55530000       0.13260000       1.37430000        1 
H       0.98230000       0.55910000      -1.09970000        1 
H      -0.67630000       1.29740000      -1.74580000        1 
H      -0.37670000      -0.45800000      -2.12220000        1 
