14
Properties=species:S:1:pos:R:3:Z:I:1 pbc="F F F"
O       1.85380000       1.92180000       0.04340000        8 
C      -0.44280000      -0.62760000      -0.16130000        6 
C       0.89110000      -0.10520000      -0.70480000        6 
C      -1.48030000       0.48290000      -0.00590000        6 
C       1.59110000       0.75830000       0.30230000        6 
H      -0.25600000      -1.20360000       0.98100000        1 
H      -0.84200000      -1.38900000      -0.86590000        1 
H       1.54740000      -0.97080000      -0.93570000        1 
H       0.72250000       0.45560000      -1.65070000        1 
H      -2.43630000       0.04620000       0.35150000        1 
H      -1.13770000       1.23370000       0.73680000        1 
H      -1.66020000       0.98380000      -0.98090000        1 
H       1.86960000       0.34810000       1.26770000        1 
H      -0.22040000      -1.93420000       1.62230000        1 
