20
Properties=species:S:1:pos:R:3:Z:I:1 pbc="F F F"
O       1.35640000      -0.70910000      -0.18510000        8 
O       4.25830000      -0.25650000       1.48130000        8 
C      -0.91070000      -0.71540000      -0.94780000        6 
C      -2.21840000       0.08390000      -1.05480000        6 
C       0.16110000       0.01290000      -0.13380000        6 
C      -2.97900000       0.15190000       0.26910000        6 
C       3.25510000       0.49360000       0.86870000        6 
H      -2.87130000      -0.41090000      -1.80620000        1 
H      -2.00930000       1.11360000      -1.41800000        1 
H      -1.11030000      -1.71260000      -0.49790000        1 
H      -0.52040000      -0.88210000      -1.97560000        1 
H       0.33070000       1.02840000      -0.55310000        1 
H      -0.15830000       0.10450000       0.92570000        1 
H      -3.96230000       0.64080000       0.10460000        1 
H      -2.41660000       0.75030000       1.01540000        1 
H      -3.15520000      -0.86920000       0.66930000        1 
H       3.70940000       1.20530000       0.14790000        1 
H       2.69420000       1.06020000       1.64020000        1 
H       2.20930000      -0.01720000       0.52530000        1 
H       4.33730000      -1.07230000       0.92480000        1 
