21
Properties=species:S:1:pos:R:3:Z:I:1 pbc="F F F"
O      -0.15550000      -0.90410000      -1.20060000        8 
O       3.12340000      -0.65180000       0.14510000        8 
O       2.06720000      -1.01840000      -0.55480000        8 
C      -1.30980000      -0.74890000       0.91860000        6 
C      -2.20120000       0.48870000       0.72250000        6 
C      -1.08090000      -1.54700000      -0.37170000        6 
C      -1.50870000       1.60880000      -0.05260000        6 
C       3.55470000       0.55430000      -0.42220000        6 
H      -3.14390000       0.20530000       0.20590000        1 
H      -2.47580000       0.88140000       1.72560000        1 
H      -1.81590000      -1.41840000       1.64770000        1 
H      -0.33550000      -0.45590000       1.36710000        1 
H      -0.69950000      -2.55950000      -0.11560000        1 
H      -2.03740000      -1.67720000      -0.92120000        1 
H      -1.37780000       1.32570000      -1.11720000        1 
H      -2.13660000       2.52400000      -0.01700000        1 
H      -0.51990000       1.84150000       0.39660000        1 
H       4.44750000       0.91240000       0.13050000        1 
H       2.76160000       1.33030000      -0.34290000        1 
H       3.84050000       0.40620000      -1.48700000        1 
H       1.00360000      -1.09720000      -0.65670000        1 
