22
Properties=species:S:1:pos:R:3:Z:I:1 pbc="F F F"
O       1.84060000       0.58780000       1.00630000        8 
O       2.28350000      -1.56300000       0.31460000        8 
O       0.53150000       0.33930000       1.14330000        8 
C      -1.22020000       0.47580000      -0.63890000        6 
C      -2.40150000      -0.30820000      -0.06030000        6 
C      -1.63400000       1.89120000      -1.02680000        6 
C      -1.97860000      -1.71820000       0.33870000        6 
C       4.16730000      -0.10150000       0.43630000        6 
C       2.71480000      -0.40860000       0.57920000        6 
H      -0.24170000       0.54870000       0.27360000        1 
H      -0.82740000      -0.04520000      -1.53930000        1 
H      -3.21470000      -0.37490000      -0.81570000        1 
H      -2.79420000       0.21660000       0.83750000        1 
H      -2.00330000       2.44100000      -0.13530000        1 
H      -2.43150000       1.86310000      -1.79970000        1 
H      -0.75660000       2.43230000      -1.43870000        1 
H      -1.60240000      -2.27360000      -0.54680000        1 
H      -2.85130000      -2.26400000       0.75520000        1 
H      -1.18260000      -1.67830000       1.11260000        1 
H       4.57570000       0.22040000       1.41680000        1 
H       4.30170000       0.71660000      -0.30150000        1 
H       4.72510000      -0.99710000       0.08880000        1 
