22
Properties=species:S:1:pos:R:3:Z:I:1 pbc="F F F"
O      -3.26090000      -1.53780000       0.30420000        8 
C      -1.10310000      -0.47050000       0.27990000        6 
C      -0.17390000       0.48680000      -0.47960000        6 
C      -2.50790000      -0.54070000      -0.33080000        6 
C      -0.54870000       1.95430000      -0.28280000        6 
C       2.80380000      -1.22130000       0.20310000        6 
C       2.38560000       0.23720000       0.22340000        6 
H       1.03620000       0.31590000      -0.03660000        1 
H      -0.17400000       0.24280000      -1.56430000        1 
H      -1.17020000      -0.16550000       1.34690000        1 
H      -0.65220000      -1.48590000       0.24810000        1 
H      -2.43260000      -0.79320000      -1.40990000        1 
H      -3.02570000       0.44030000      -0.24080000        1 
H      -1.52640000       2.17840000      -0.75720000        1 
H      -0.59470000       2.20090000       0.79900000        1 
H       0.22290000       2.59550000      -0.75790000        1 
H       3.89020000      -1.30650000       0.41660000        1 
H       2.23330000      -1.78260000       0.97200000        1 
H       2.59080000      -1.65550000      -0.79590000        1 
H       2.94600000       0.80430000      -0.54950000        1 
H       2.58760000       0.67680000       1.22290000        1 
H      -3.52600000      -1.17360000       1.18910000        1 
