22
Properties=species:S:1:pos:R:3:Z:I:1 pbc="F F F"
O       1.21450000       0.06400000      -0.37260000        8 
C      -0.99550000      -0.77380000       0.34420000        6 
C      -2.25830000      -0.07870000      -0.17430000        6 
C      -1.02910000      -2.26990000       0.04910000        6 
C      -2.21980000       1.41830000       0.11730000        6 
C       3.37190000       0.71920000       0.41270000        6 
C       2.35180000       0.79720000      -0.71240000        6 
H      -0.02210000      -0.29450000      -0.18580000        1 
H      -0.90890000      -0.62510000       1.44280000        1 
H      -2.34400000      -0.22890000      -1.27260000        1 
H      -3.15590000      -0.51790000       0.31340000        1 
H      -1.90380000      -2.74200000       0.54530000        1 
H      -0.10230000      -2.74440000       0.43460000        1 
H      -1.08850000      -2.44500000      -1.04610000        1 
H      -2.15820000       1.59680000       1.21200000        1 
H      -1.34420000       1.88630000      -0.38100000        1 
H      -3.14500000       1.89600000      -0.26860000        1 
H       4.27570000       1.30350000       0.13950000        1 
H       3.66530000      -0.33760000       0.58750000        1 
H       2.94070000       1.13810000       1.34660000        1 
H       2.06620000       1.85600000      -0.88680000        1 
H       2.78960000       0.38250000      -1.64480000        1 
