25
Properties=species:S:1:pos:R:3:Z:I:1 pbc="F F F"
O      -0.77160000      -0.00570000      -0.99490000        8 
O       2.62590000      -0.69080000       1.22530000        8 
O       0.40980000       0.52530000      -0.74470000        8 
C      -2.59200000      -1.19200000       0.04210000        6 
C      -3.67330000      -0.20870000      -0.43690000        6 
C       3.97660000      -0.08940000      -0.62070000        6 
C      -1.21450000      -0.54540000       0.22280000        6 
C      -4.05140000       0.82080000       0.62760000        6 
C       4.92570000       0.86070000       0.10220000        6 
C       2.67180000      -0.20630000       0.10560000        6 
H      -3.34080000       0.31430000      -1.35940000        1 
H      -4.58410000      -0.79120000      -0.69500000        1 
H      -2.90770000      -1.65650000       1.00160000        1 
H      -2.50160000      -2.00930000      -0.70630000        1 
H       4.44430000      -1.09370000      -0.70640000        1 
H       3.78490000       0.29740000      -1.64400000        1 
H      -0.50490000      -1.33190000       0.56620000        1 
H      -1.26560000       0.24300000       1.00620000        1 
H      -3.20990000       1.51910000       0.81570000        1 
H      -4.91950000       1.41550000       0.27320000        1 
H      -4.33340000       0.31520000       1.57560000        1 
H       5.87220000       0.94760000      -0.47180000        1 
H       4.46860000       1.86980000       0.18920000        1 
H       5.16140000       0.47520000       1.11720000        1 
H       1.52920000       0.21710000      -0.49040000        1 
