15
Properties=species:S:1:pos:R:3:Z:I:1 pbc="F F F"
O      -1.65920000       2.55280000      -0.37500000        8 
C      -0.53880000       0.34530000      -0.50780000        6 
C       0.67100000       0.56020000       0.41260000        6 
C      -1.39750000      -0.84540000      -0.08530000        6 
C       1.73410000      -0.52590000       0.25240000        6 
H      -1.24080000       1.35950000      -0.46810000        1 
H      -0.20200000       0.20900000      -1.55850000        1 
H       1.13130000       1.53980000       0.16080000        1 
H       0.34100000       0.60650000       1.47310000        1 
H      -2.30940000      -0.88240000      -0.71730000        1 
H      -1.70770000      -0.74260000       0.97610000        1 
H      -0.84330000      -1.79740000      -0.21960000        1 
H       1.35170000      -1.50520000       0.60750000        1 
H       2.04420000      -0.61250000      -0.81060000        1 
H       2.62540000      -0.26180000       0.85970000        1 
