22
Properties=species:S:1:pos:R:3:Z:I:1 pbc="F F F"
O       1.48110000      -0.12920000      -0.83730000        8 
C      -1.84570000      -0.86630000      -0.59840000        6 
C      -1.68540000      -0.18560000       0.76870000        6 
C      -0.82900000      -0.36960000      -1.62470000        6 
C      -2.10910000       1.28270000       0.74960000        6 
C       2.82830000      -0.04730000       1.13210000        6 
C       2.79950000      -0.04620000      -0.38820000        6 
H      -2.87550000      -0.70930000      -0.98670000        1 
H      -1.69880000      -1.95990000      -0.46530000        1 
H      -2.32250000      -0.72240000       1.50470000        1 
H      -0.63210000      -0.26520000       1.11520000        1 
H       0.32000000      -0.49180000      -1.18540000        1 
H      -0.91820000      -0.97110000      -2.55380000        1 
H      -1.01670000       0.69350000      -1.88140000        1 
H      -3.14620000       1.38310000       0.36480000        1 
H      -1.42040000       1.88220000       0.11890000        1 
H      -2.07480000       1.68980000       1.78210000        1 
H       3.87850000       0.01880000       1.48660000        1 
H       2.26030000       0.82300000       1.52400000        1 
H       2.37530000      -0.98420000       1.52040000        1 
H       3.37320000      -0.91470000      -0.77470000        1 
H       3.25840000       0.88970000      -0.77110000        1 
