18
Properties=species:S:1:pos:R:3:Z:I:1 pbc="F F F"
O       2.32850000       1.04470000       0.93340000        8 
O      -0.66340000       3.19650000       0.64130000        8 
C       0.30850000      -0.11160000       0.39560000        6 
C      -0.31340000      -1.20310000      -0.48070000        6 
C       1.80330000       0.03310000       0.12080000        6 
C      -1.80890000      -1.33470000      -0.21130000        6 
C      -0.82310000       2.27360000      -0.13960000        6 
H       0.17830000      -2.17840000      -0.27230000        1 
H      -0.16250000      -0.95250000      -1.55320000        1 
H      -0.28870000       1.04910000       0.14430000        1 
H       0.15810000      -0.36320000       1.46860000        1 
H       1.96020000       0.29590000      -0.94930000        1 
H       2.31870000      -0.92890000       0.34070000        1 
H      -1.98730000      -1.60790000       0.85060000        1 
H      -2.32750000      -0.37850000      -0.43660000        1 
H      -2.23440000      -2.13020000      -0.85860000        1 
H       3.29570000       1.09710000       0.71680000        1 
H      -1.74220000       2.19910000      -0.71030000        1 
