15
Properties=species:S:1:pos:R:3:Z:I:1 pbc="F F F"
O       0.90310000       2.28190000      -0.98130000        8 
O       2.46020000      -0.69470000      -0.57840000        8 
C      -1.00490000       0.07910000      -0.29320000        6 
C       0.33340000       0.42430000       0.36820000        6 
C      -1.38080000      -1.37900000      -0.04650000        6 
C       0.68670000       1.86410000       0.14530000        6 
H      -1.80540000       0.73220000       0.11850000        1 
H      -0.93870000       0.25130000      -1.38990000        1 
H       1.14140000      -0.21610000      -0.04780000        1 
H       0.26600000       0.23790000       1.46210000        1 
H      -2.35170000      -1.60080000      -0.53760000        1 
H      -0.60640000      -2.05400000      -0.46940000        1 
H      -1.48150000      -1.57280000       1.04280000        1 
H       0.76220000       2.54050000       0.99060000        1 
H       3.01630000      -0.89380000       0.21640000        1 
