20
Properties=species:S:1:pos:R:3:Z:I:1 pbc="F F F"
O      -2.22200000       1.80880000       0.94530000        8 
O       2.76200000       1.34690000      -0.46660000        8 
C      -1.74890000      -0.31990000      -0.03900000        6 
C      -0.76320000      -1.14120000      -0.88370000        6 
C      -1.21380000       1.06950000       0.31450000        6 
C       0.47730000      -1.56570000      -0.09990000        6 
C       2.22150000       0.41400000       0.41780000        6 
H      -1.28410000      -2.05790000      -1.23610000        1 
H      -0.45340000      -0.56340000      -1.78100000        1 
H      -2.00260000      -0.87160000       0.89260000        1 
H      -2.68730000      -0.19850000      -0.62330000        1 
H      -0.34500000       0.97530000       1.00180000        1 
H      -0.89260000       1.59510000      -0.61290000        1 
H       1.28320000      -0.47440000       0.16300000        1 
H       1.06590000      -2.28720000      -0.70500000        1 
H       0.18940000      -2.05740000       0.85360000        1 
H       3.02880000      -0.24000000       0.80880000        1 
H       1.73670000       0.94430000       1.26320000        1 
H      -1.82760000       2.69720000       1.14620000        1 
H       2.67540000       0.92610000      -1.35930000        1 
