27
Properties=species:S:1:pos:R:3:Z:I:1 pbc="F F F"
O      -0.68730000       0.11200000      -0.99660000        8 
O       0.47210000       0.72440000      -1.14110000        8 
C      -2.46740000      -0.25730000       0.57530000        6 
C      -3.57420000       0.31980000      -0.31720000        6 
C      -1.11710000       0.40900000       0.30620000        6 
C      -4.91890000      -0.33720000      -0.02020000        6 
C       2.36040000      -0.85130000      -0.49370000        6 
C       4.27620000       0.89130000      -0.67500000        6 
C       3.53930000      -0.14800000       0.12180000        6 
C       3.93690000      -0.43570000       1.36950000        6 
H      -3.66330000       1.41440000      -0.14400000        1 
H      -3.32310000       0.15190000      -1.38700000        1 
H      -2.73500000      -0.09710000       1.64280000        1 
H      -2.37520000      -1.35210000       0.40190000        1 
H      -1.21380000       1.51040000       0.44380000        1 
H      -0.38050000       0.01940000       1.04510000        1 
H      -4.86400000      -1.43070000      -0.20850000        1 
H      -5.69910000       0.09790000      -0.67980000        1 
H      -5.20950000      -0.16100000       1.03750000        1 
H       1.45080000       0.03360000      -0.82210000        1 
H       1.90280000      -1.58570000       0.20360000        1 
H       2.68690000      -1.38990000      -1.40790000        1 
H       3.82360000       1.01150000      -1.68220000        1 
H       5.33760000       0.58870000      -0.79910000        1 
H       4.23340000       1.86910000      -0.15020000        1 
H       3.42070000      -1.18200000       1.96580000        1 
H       4.78780000       0.07440000       1.81140000        1 
