29
Properties=species:S:1:pos:R:3:Z:I:1 pbc="F F F"
O       0.57400000      -0.31640000       0.24190000        8 
O      -0.43640000      -1.13360000       0.01470000        8 
C       2.97300000      -0.23520000       0.36130000        6 
C       3.13790000       0.84130000      -0.71960000        6 
C      -2.87380000      -0.86340000      -0.21020000        6 
C      -3.20100000       0.41610000       0.56490000        6 
C       1.73340000      -1.09770000       0.11770000        6 
C       4.39110000       1.67720000      -0.47670000        6 
C      -3.36530000      -2.10040000       0.53370000        6 
C      -2.69480000       1.64890000      -0.17690000        6 
H       2.25370000       1.51500000      -0.72020000        1 
H       3.21500000       0.36070000      -1.71920000        1 
H       2.89340000       0.24380000       1.36190000        1 
H       3.86860000      -0.89450000       0.36310000        1 
H      -1.54760000      -0.95960000      -0.37550000        1 
H      -3.35460000      -0.82980000      -1.21230000        1 
H      -2.72190000       0.37820000       1.56740000        1 
H      -4.30110000       0.50250000       0.70100000        1 
H       1.79170000      -1.55110000      -0.89840000        1 
H       1.72100000      -1.91510000       0.87410000        1 
H       4.48430000       2.44710000      -1.27150000        1 
H       5.29560000       1.03250000      -0.49920000        1 
H       4.32910000       2.18850000       0.50750000        1 
H      -2.87550000      -2.17020000       1.52800000        1 
H      -4.46740000      -2.05900000       0.66730000        1 
H      -3.11050000      -3.00840000      -0.05170000        1 
H      -1.59240000       1.59800000      -0.30340000        1 
H      -3.17600000       1.72330000      -1.17540000        1 
H      -2.94340000       2.56100000       0.40560000        1 
