20
Properties=species:S:1:pos:R:3:Z:I:1 pbc="F F F"
O      -1.96740000       1.44560000       0.33600000        8 
O       1.47130000       0.69780000       0.96560000        8 
C      -1.44080000      -0.53630000      -0.92650000        6 
C      -1.12960000      -1.39330000       0.31190000        6 
C      -1.18210000       0.95920000      -0.71730000        6 
C       0.36390000      -1.45870000       0.62780000        6 
C       2.63190000       1.07040000       0.28960000        6 
H      -1.48960000      -2.42710000       0.11890000        1 
H      -1.67950000      -1.00890000       1.19760000        1 
H      -0.83890000      -0.89460000      -1.79000000        1 
H      -2.51190000      -0.67430000      -1.19080000        1 
H      -0.10500000       1.13990000      -0.51030000        1 
H      -1.44610000       1.49840000      -1.65420000        1 
H       0.77270000      -0.36480000       1.03320000        1 
H       0.53830000      -2.20780000       1.42870000        1 
H       0.94070000      -1.76290000      -0.27140000        1 
H       3.10520000       0.17130000      -0.15590000        1 
H       3.33790000       1.54570000       1.00130000        1 
H       2.37650000       1.79070000      -0.51450000        1 
H      -1.74750000       2.40960000       0.42050000        1 
