16
Properties=species:S:1:pos:R:3:Z:I:1 pbc="F F F"
O       2.93160000       1.03150000       0.12800000        8 
C      -0.17630000      -0.44830000      -0.69540000        6 
C      -0.78780000       0.10180000       0.59760000        6 
C       1.28320000      -0.84090000      -0.48920000        6 
C      -2.24770000       0.49520000       0.39240000        6 
H      -0.23090000       0.32340000      -1.49390000        1 
H      -0.74610000      -1.34280000      -1.02930000        1 
H      -0.21780000       0.99640000       0.93120000        1 
H      -0.73220000      -0.66950000       1.39660000        1 
H       1.91420000       0.09610000      -0.15860000        1 
H       1.36450000      -1.63130000       0.28720000        1 
H       1.70090000      -1.23310000      -1.44040000        1 
H      -2.84550000      -0.38830000       0.08240000        1 
H      -2.66370000       0.88940000       1.34340000        1 
H      -2.32900000       1.28460000      -0.38510000        1 
H       3.78250000       1.33570000       0.53300000        1 
