22
Properties=species:S:1:pos:R:3:Z:I:1 pbc="F F F"
C      -1.01130000       0.21360000      -0.50020000        6 
C      -2.53220000       0.28520000      -0.29940000        6 
C      -0.36620000      -0.93030000       0.27880000        6 
C      -2.92000000       0.74490000       1.10560000        6 
C       3.30180000      -0.11340000      -0.52550000        6 
C       2.11600000      -1.00080000      -0.71090000        6 
C       3.23700000       0.94780000       0.27860000        6 
H      -0.53890000       1.17550000      -0.20570000        1 
H      -0.80490000       0.05460000      -1.58040000        1 
H      -2.94910000       1.01070000      -1.03110000        1 
H      -2.99290000      -0.70490000      -0.50800000        1 
H       0.99360000      -1.01310000      -0.06930000        1 
H      -0.85520000      -1.89600000       0.02960000        1 
H      -0.43490000      -0.75020000       1.37170000        1 
H      -4.02090000       0.87990000       1.15870000        1 
H      -2.43340000       1.71420000       1.34550000        1 
H      -2.62780000      -0.01310000       1.86150000        1 
H       4.22450000      -0.33730000      -1.05220000        1 
H       1.81970000      -1.00940000      -1.78030000        1 
H       2.36720000      -2.03200000      -0.38680000        1 
H       4.10520000       1.58630000       0.40610000        1 
H       2.32280000       1.18770000       0.81380000        1 
