17
Properties=species:S:1:pos:R:3:Z:I:1 pbc="F F F"
O       1.81540000      -1.04470000      -0.32380000        8 
O       2.94670000       1.00790000      -0.79560000        8 
C      -0.38940000      -0.09440000      -0.59570000        6 
C      -0.80260000      -0.29400000       0.86820000        6 
C       0.62130000      -1.15230000      -1.04900000        6 
C      -1.83100000       0.74860000       1.29670000        6 
H       0.08860000      -0.20850000       1.52720000        1 
H      -1.24190000      -1.30690000       0.99930000        1 
H       0.05310000       0.91720000      -0.72850000        1 
H      -1.28940000      -0.16520000      -1.24500000        1 
H       0.19680000      -2.16770000      -0.89840000        1 
H       0.82620000      -1.03030000      -2.13600000        1 
H      -1.40810000       1.77110000       1.19760000        1 
H      -2.11000000       0.58120000       2.35840000        1 
H      -2.74610000       0.66770000       0.67210000        1 
H       2.34030000      -0.15720000      -0.71870000        1 
H       2.92990000       1.92760000      -0.42880000        1 
