20
Properties=species:S:1:pos:R:3:Z:I:1 pbc="F F F"
O       2.93730000      -1.60040000      -0.28060000        8 
O      -3.33390000      -0.22960000       1.36870000        8 
C       0.75360000      -0.64350000      -0.08100000        6 
C      -0.06170000       0.59680000       0.31060000        6 
C       2.26340000      -0.39760000      -0.03570000        6 
C      -0.01140000       1.69640000      -0.74800000        6 
C      -2.53760000      -0.34910000       0.22560000        6 
H      -1.35260000       0.22200000       0.46550000        1 
H       0.29280000       0.99850000       1.28480000        1 
H       0.45830000      -0.98640000      -1.09650000        1 
H       0.50530000      -1.45730000       0.63420000        1 
H       2.54900000       0.34730000      -0.81040000        1 
H       2.54950000      -0.00910000       0.96760000        1 
H      -0.71020000       2.51010000      -0.46230000        1 
H       1.00930000       2.12520000      -0.82290000        1 
H      -0.32120000       1.29670000      -1.73670000        1 
H      -3.17220000      -0.44340000      -0.68220000        1 
H      -1.85680000      -1.22330000       0.31560000        1 
H       3.90570000      -1.38810000      -0.23400000        1 
H      -3.86670000      -1.06530000       1.41780000        1 
