16
Properties=species:S:1:pos:R:3:Z:I:1 pbc="F F F"
O       1.77680000      -0.09850000       0.90850000        8 
O       3.26720000       0.73010000      -0.60500000        8 
C       0.07400000      -0.37310000      -0.78700000        6 
C      -0.75750000       0.83020000      -0.31220000        6 
C       0.90030000      -1.02430000       0.32950000        6 
C      -1.90460000       0.42830000       0.61430000        6 
H      -1.19150000       1.32840000      -1.20610000        1 
H      -0.10760000       1.57240000       0.19940000        1 
H      -0.59680000      -1.13660000      -1.23770000        1 
H       0.76650000      -0.03090000      -1.58660000        1 
H       1.47970000      -1.87590000      -0.09000000        1 
H       0.23330000      -1.43540000       1.11480000        1 
H      -2.53930000       1.31560000       0.82130000        1 
H      -1.51440000       0.05070000       1.58190000        1 
H      -2.53450000      -0.35270000       0.13780000        1 
H       2.64820000       0.07180000       0.11700000        1 
