21
Properties=species:S:1:pos:R:3:Z:I:1 pbc="F F F"
C      -0.36570000      -0.00840000      -0.37450000        6 
C      -1.48990000       0.14920000       0.65860000        6 
C      -0.59660000      -1.18270000      -1.32350000        6 
C      -2.79600000       0.64380000       0.03820000        6 
C       3.11500000       0.31310000       0.13800000        6 
C       1.85400000       0.19520000       0.97370000        6 
H       0.74730000      -0.21690000       0.26380000        1 
H      -0.24870000       0.92890000      -0.96080000        1 
H      -1.66620000      -0.81560000       1.18160000        1 
H      -1.16160000       0.88910000       1.41980000        1 
H      -0.75500000      -2.11970000      -0.74900000        1 
H      -1.47370000      -0.99430000      -1.97670000        1 
H       0.29680000      -1.31190000      -1.96950000        1 
H      -3.22130000      -0.12130000      -0.64390000        1 
H      -2.62700000       1.58740000      -0.52290000        1 
H      -3.53570000       0.83940000       0.84290000        1 
H       3.12490000      -0.48340000      -0.63490000        1 
H       3.13880000       1.30390000      -0.36170000        1 
H       4.01010000       0.20710000       0.78640000        1 
H       1.83230000       0.99460000       1.74410000        1 
H       1.81840000      -0.79740000       1.47020000        1 
