17
Properties=species:S:1:pos:R:3:Z:I:1 pbc="F F F"
O       1.39580000       1.42670000       0.34190000        8 
O      -1.61230000       1.92650000       0.32810000        8 
O      -1.70080000       3.13050000       0.85210000        8 
C       0.48010000      -0.29950000      -1.06490000        6 
C      -0.88690000      -0.33210000      -0.36290000        6 
C       1.62650000       0.13410000      -0.14650000        6 
C      -0.99640000      -1.45070000       0.67160000        6 
H      -1.13800000       0.84510000       0.22600000        1 
H      -1.67130000      -0.49360000      -1.13380000        1 
H       0.42180000       0.41340000      -1.91570000        1 
H       0.70780000      -1.30230000      -1.48760000        1 
H       1.73970000      -0.58160000       0.69660000        1 
H       2.57210000       0.12500000      -0.73310000        1 
H      -0.33080000      -1.25020000       1.53590000        1 
H      -0.73390000      -2.42970000       0.21740000        1 
H      -2.04020000      -1.50230000       1.04630000        1 
H       2.16690000       1.64070000       0.92880000        1 
