26
Properties=species:S:1:pos:R:3:Z:I:1 pbc="F F F"
O      -0.59290000       0.61820000      -0.58510000        8 
O       0.61210000       0.14550000      -0.33130000        8 
C      -2.58590000       1.44440000       0.48330000        6 
C      -3.53330000       0.48380000      -0.25510000        6 
C       2.93600000      -0.75160000      -0.17470000        6 
C      -1.17030000       0.88690000       0.66570000        6 
C      -3.88800000      -0.75110000       0.57260000        6 
C       3.45670000      -1.41610000      -1.44430000        6 
C       3.89630000       0.32250000       0.32400000        6 
H      -4.47400000       1.02990000      -0.48400000        1 
H      -3.08820000       0.16810000      -1.22320000        1 
H      -2.51950000       2.39040000      -0.09720000        1 
H      -3.01150000       1.69740000       1.47890000        1 
H       1.74590000      -0.19110000      -0.42980000        1 
H       2.80210000      -1.52150000       0.61550000        1 
H      -1.20290000      -0.03400000       1.28910000        1 
H      -0.56380000       1.65030000       1.20390000        1 
H      -3.00030000      -1.40320000       0.70630000        1 
H      -4.28320000      -0.45310000       1.56700000        1 
H      -4.66910000      -1.33710000       0.04380000        1 
H       2.73280000      -2.18770000      -1.78010000        1 
H       4.43580000      -1.90430000      -1.25180000        1 
H       3.57250000      -0.66260000      -2.25200000        1 
H       3.48480000       0.78630000       1.24480000        1 
H       4.02150000       1.11290000      -0.44610000        1 
H       4.88630000      -0.12300000       0.56000000        1 
