18
Properties=species:S:1:pos:R:3:Z:I:1 pbc="F F F"
O       1.68260000       0.29200000       0.64000000        8 
O      -1.62540000       2.86720000       0.79720000        8 
C      -1.36800000      -0.22970000      -0.62130000        6 
C      -0.81180000       0.66840000       0.48620000        6 
C      -1.22260000      -1.70460000      -0.25830000        6 
C       2.91110000      -0.18950000       0.19080000        6 
C      -0.95570000       2.11240000       0.11060000        6 
H      -0.82090000      -0.03780000      -1.57030000        1 
H      -2.44470000      -0.00240000      -0.78240000        1 
H       0.32270000       0.43770000       0.65020000        1 
H      -1.35290000       0.46870000       1.43770000        1 
H      -0.15180000      -1.96300000      -0.11490000        1 
H      -1.63230000      -2.33120000      -1.07840000        1 
H      -1.78280000      -1.92970000       0.67420000        1 
H       2.81730000      -0.51350000      -0.86610000        1 
H       3.22120000      -1.05190000       0.81590000        1 
H       3.67270000       0.61390000       0.26510000        1 
H      -0.45890000       2.49320000      -0.77600000        1 
