15
Properties=species:S:1:pos:R:3:Z:I:1 pbc="F F F"
C      -0.38780000      -1.00600000      -0.22590000        6 
C       1.03210000      -0.52310000       0.10460000        6 
C      -1.46520000      -0.23810000       0.53770000        6 
C       1.32340000       0.87480000      -0.43990000        6 
H      -0.46470000      -2.08080000       0.04740000        1 
H      -0.57660000      -0.92130000      -1.31790000        1 
H       1.75760000      -1.23210000      -0.35000000        1 
H       1.19440000      -0.53580000       1.20430000        1 
H      -1.54480000       1.00750000       0.10360000        1 
H      -2.45040000      -0.72290000       0.37190000        1 
H      -1.24940000      -0.24100000       1.62730000        1 
H       2.39580000       1.11570000      -0.28210000        1 
H       1.10740000       0.92180000      -1.52840000        1 
H       0.71750000       1.63690000       0.09230000        1 
H      -1.38900000       1.94440000       0.05490000        1 
