20
Properties=species:S:1:pos:R:3:Z:I:1 pbc="F F F"
O       0.54570000      -2.14020000      -0.28030000        8 
O       3.46720000       0.45340000       1.34190000        8 
C      -0.68290000      -0.15860000      -0.92170000        6 
C      -1.31970000       0.05530000       0.45680000        6 
C       0.67910000      -0.84940000      -0.81190000        6 
C      -2.66240000       0.77030000       0.33750000        6 
C       2.44480000       0.74390000       0.43930000        6 
H      -1.48040000      -0.92540000       0.95500000        1 
H      -0.64260000       0.66670000       1.09250000        1 
H      -0.53800000       0.82630000      -1.41670000        1 
H      -1.35670000      -0.77170000      -1.55950000        1 
H       1.48200000      -0.13020000      -0.01410000        1 
H       1.15700000      -0.89570000      -1.81680000        1 
H      -2.52810000       1.76790000      -0.13250000        1 
H      -3.10010000       0.91040000       1.34830000        1 
H      -3.36710000       0.16800000      -0.27450000        1 
H       2.84620000       1.36880000      -0.38500000        1 
H       1.63490000       1.29750000       0.95910000        1 
H       0.17220000      -2.70800000      -1.00400000        1 
H       3.24900000      -0.44930000       1.68660000        1 
