19
Properties=species:S:1:pos:R:3:Z:I:1 pbc="F F F"
O       2.70780000       0.45690000      -0.94660000        8 
O      -1.14750000      -2.35220000       1.82590000        8 
O       1.51520000       0.02060000      -0.58990000        8 
C      -1.84300000      -0.31190000      -0.82570000        6 
C      -0.70470000      -1.00930000      -0.07160000        6 
C      -1.98980000       1.15720000      -0.43200000        6 
C       3.42990000       0.60510000       0.24460000        6 
C      -1.04290000      -1.22250000       1.37540000        6 
H      -1.62590000      -0.36110000      -1.91450000        1 
H      -2.80250000      -0.84500000      -0.64710000        1 
H       0.38680000      -0.30530000      -0.15800000        1 
H      -0.51100000      -1.99230000      -0.55470000        1 
H      -2.29390000       1.25080000       0.63130000        1 
H      -1.03370000       1.69940000      -0.59170000        1 
H      -2.77310000       1.63110000      -1.06040000        1 
H       2.93930000       1.34940000       0.91010000        1 
H       4.44870000       0.97250000       0.00410000        1 
H       3.52650000      -0.37170000       0.76820000        1 
H      -1.18630000      -0.37170000       2.03250000        1 
