20
Properties=species:S:1:pos:R:3:Z:I:1 pbc="F F F"
O      -0.86200000       2.32860000      -0.51230000        8 
C      -0.85040000      -0.43760000      -0.66820000        6 
C      -1.65810000       0.28200000       0.42000000        6 
C      -0.98780000      -1.95160000      -0.54720000        6 
C       2.37390000       0.82950000       0.71740000        6 
C      -1.53970000       1.78010000       0.34350000        6 
C       1.76480000      -0.07930000      -0.33420000        6 
H       0.40590000      -0.12320000      -0.55600000        1 
H      -1.20910000      -0.12300000      -1.67280000        1 
H      -1.30120000      -0.04440000       1.42030000        1 
H      -2.73160000       0.01070000       0.32550000        1 
H      -0.60970000      -2.29400000       0.43930000        1 
H      -2.05080000      -2.25380000      -0.65990000        1 
H      -0.39120000      -2.44150000      -1.34500000        1 
H       1.88840000       0.64170000       1.69760000        1 
H       3.46320000       0.63210000       0.80320000        1 
H       2.21430000       1.88960000       0.43050000        1 
H      -2.07110000       2.38770000       1.06840000        1 
H       1.91280000      -1.14240000      -0.04980000        1 
H       2.23950000       0.10880000      -1.32020000        1 
