22
Properties=species:S:1:pos:R:3:Z:I:1 pbc="F F F"
C      -0.85750000       0.77290000       0.17900000        6 
C      -1.65640000      -0.14060000      -0.75450000        6 
C      -0.20230000       1.91350000      -0.59210000        6 
C      -2.29540000      -1.28840000       0.02030000        6 
C       2.52930000      -0.38390000       0.71970000        6 
C       1.16820000      -0.60100000       1.29880000        6 
C       2.70420000      -0.29440000      -0.59960000        6 
H       0.12660000       0.04110000       0.80610000        1 
H      -1.53040000       1.20050000       0.95420000        1 
H      -0.98200000      -0.56290000      -1.53080000        1 
H      -2.45600000       0.44410000      -1.25970000        1 
H      -0.97430000       2.53550000      -1.09330000        1 
H       0.49770000       1.50930000      -1.35360000        1 
H       0.37020000       2.55310000       0.11160000        1 
H      -2.86670000      -1.93550000      -0.67820000        1 
H      -1.51340000      -1.90330000       0.51460000        1 
H      -2.99310000      -0.89380000       0.78950000        1 
H       3.38410000      -0.28540000       1.38230000        1 
H       1.22120000      -0.58610000       2.40750000        1 
H       0.76560000      -1.58100000       0.96590000        1 
H       1.86350000      -0.38310000      -1.28150000        1 
H       3.69700000      -0.13050000      -1.00600000        1 
