22
Properties=species:S:1:pos:R:3:Z:I:1 pbc="F F F"
O       0.19500000      -0.22410000      -2.54130000        8 
C      -1.28260000      -0.62290000      -0.70430000        6 
C      -1.58390000      -0.26440000       0.75480000        6 
C      -0.05600000       0.13150000      -1.21170000        6 
C      -2.80900000      -1.01740000       1.26530000        6 
C       2.92240000       1.43260000       0.25270000        6 
C       2.11660000       0.14690000       0.26750000        6 
H      -1.77180000       0.82810000       0.84170000        1 
H      -0.71120000      -0.52360000       1.39310000        1 
H      -2.15760000      -0.36470000      -1.34060000        1 
H      -1.09430000      -1.71580000      -0.78730000        1 
H       0.96420000      -0.17000000      -0.48580000        1 
H      -0.23700000       1.22780000      -1.14900000        1 
H      -2.63750000      -2.11380000       1.21300000        1 
H      -3.70270000      -0.75630000       0.65940000        1 
H      -3.00290000      -0.73850000       2.32240000        1 
H       3.73900000       1.37630000       1.00300000        1 
H       3.36010000       1.58570000      -0.75570000        1 
H       2.25990000       2.28960000       0.49460000        1 
H       1.66780000      -0.00900000       1.27110000        1 
H       2.77090000      -0.71470000       0.01760000        1 
H       1.05070000       0.21660000      -2.78050000        1 
