14
Properties=species:S:1:pos:R:3:Z:I:1 pbc="F F F"
O       1.62720000      -1.28870000       1.52660000        8 
O       1.95210000       2.36990000      -0.72500000        8 
C      -0.58580000       0.26140000      -0.60370000        6 
C       0.71110000       0.43840000       0.19400000        6 
C      -1.65410000      -0.49300000       0.18740000        6 
C       1.41460000      -0.87090000       0.39970000        6 
H      -0.37740000      -0.27580000      -1.55470000        1 
H      -0.98210000       1.26670000      -0.86290000        1 
H       1.44160000       1.16360000      -0.41470000        1 
H       0.49160000       0.92100000       1.17210000        1 
H      -1.88030000       0.03910000       1.13590000        1 
H      -1.31360000      -1.52470000       0.41720000        1 
H      -2.58510000      -0.55590000      -0.41430000        1 
H       1.74020000      -1.45110000      -0.45760000        1 
