20
Properties=species:S:1:pos:R:3:Z:I:1 pbc="F F F"
O      -3.46600000       0.92200000       0.84980000        8 
C      -0.92290000       0.23800000      -0.61080000        6 
C      -2.36440000      -0.17790000      -0.93350000        6 
C      -0.21830000      -0.76840000       0.29660000        6 
C       3.09130000       0.78650000      -0.09440000        6 
C      -3.24880000      -0.13480000       0.27840000        6 
C       2.31610000      -0.12180000       0.84180000        6 
H      -0.91090000       1.24070000      -0.13120000        1 
H      -0.35210000       0.31190000      -1.56130000        1 
H      -2.77870000       0.50990000      -1.70160000        1 
H      -2.37190000      -1.20440000      -1.35990000        1 
H       1.03710000      -0.37870000       0.49030000        1 
H      -0.20960000      -1.77440000      -0.17430000        1 
H      -0.72550000      -0.82760000       1.28270000        1 
H       2.48010000       1.68090000      -0.33580000        1 
H       3.32410000       0.24180000      -1.03300000        1 
H       4.03830000       1.10800000       0.38820000        1 
H      -3.70730000      -1.04670000       0.64640000        1 
H       2.91780000      -1.02380000       1.08130000        1 
H       2.07160000       0.41900000       1.78030000        1 
