16
Properties=species:S:1:pos:R:3:Z:I:1 pbc="F F F"
O      -2.21940000       0.35690000      -0.37910000        8 
C      -0.02550000      -0.28510000       0.40070000        6 
C       0.73890000       0.55090000      -0.63390000        6 
C      -1.38610000      -0.74200000      -0.13220000        6 
C       2.10350000       0.97460000      -0.09870000        6 
H       0.88570000      -0.04350000      -1.56200000        1 
H       0.15580000       1.46260000      -0.88790000        1 
H      -0.17710000       0.30770000       1.32900000        1 
H       0.57060000      -1.18700000       0.66000000        1 
H      -1.93450000      -1.52360000       0.72140000        1 
H      -1.25010000      -1.31320000      -1.07530000        1 
H       1.98410000       1.59110000       0.81760000        1 
H       2.63280000       1.57790000      -0.86610000        1 
H       2.71990000       0.08110000       0.13770000        1 
H      -2.58430000       0.63030000       0.50200000        1 
H      -2.21440000      -2.43890000       1.06690000        1 
