16
Properties=species:S:1:pos:R:3:Z:I:1 pbc="F F F"
O       2.50250000      -1.23010000      -0.46960000        8 
O       0.76350000       2.08530000      -1.12640000        8 
C       0.48960000      -0.02900000       0.06790000        6 
C      -1.04090000      -0.09240000       0.04460000        6 
C       1.10420000      -1.32420000      -0.46680000        6 
C      -1.65180000       1.20200000       0.57240000        6 
H      -1.39280000      -0.25710000      -0.99700000        1 
H      -1.39120000      -0.93940000       0.67410000        1 
H       0.87270000       0.91380000      -0.63040000        1 
H       0.83900000       0.13780000       1.11050000        1 
H       0.77670000      -2.19270000       0.14960000        1 
H       0.76170000      -1.49290000      -1.50990000        1 
H      -1.33460000       1.37850000       1.62230000        1 
H      -1.33650000       2.06210000      -0.05600000        1 
H      -2.75940000       1.12880000       0.54380000        1 
H       2.79730000      -1.35060000       0.47090000        1 
