15
Properties=species:S:1:pos:R:3:Z:I:1 pbc="F F F"
C       0.85320000       0.22950000       0.10220000        6 
C      -0.07720000      -0.17790000      -1.04870000        6 
C       0.77380000      -0.72550000       1.29190000        6 
C      -1.55250000       0.03630000      -0.71410000        6 
H       0.57320000       1.42930000       0.49410000        1 
H       1.89900000       0.23220000      -0.27450000        1 
H       0.09350000      -1.24190000      -1.32200000        1 
H       0.17220000       0.44260000      -1.93640000        1 
H       1.54060000      -0.44100000       2.04250000        1 
H       0.96650000      -1.76990000       0.96660000        1 
H      -0.22250000      -0.66480000       1.77610000        1 
H      -1.87660000      -0.65280000       0.09290000        1 
H      -2.16840000      -0.17180000      -1.61430000        1 
H      -1.73160000       1.08630000      -0.39920000        1 
H       0.75680000       2.38920000       0.54280000        1 
