14
Properties=species:S:1:pos:R:3:Z:I:1 pbc="F F F"
O      -2.23980000      -1.95620000      -0.47000000        8 
C       0.50370000      -0.22170000       0.59440000        6 
C      -0.64340000      -0.21210000      -0.41810000        6 
C       1.70510000       0.55820000       0.06940000        6 
C      -1.81990000      -0.97150000       0.11630000        6 
H       0.16540000       0.23930000       1.54810000        1 
H       0.81470000      -1.26970000       0.79880000        1 
H      -0.99930000       0.97000000      -0.64200000        1 
H      -0.30270000      -0.66530000      -1.37540000        1 
H       2.07980000       0.10280000      -0.87210000        1 
H       2.52040000       0.53640000       0.82290000        1 
H       1.42550000       1.61640000      -0.12060000        1 
H      -2.30650000      -0.64320000       1.02910000        1 
H      -0.90310000       1.91650000      -1.08080000        1 
