18
Properties=species:S:1:pos:R:3:Z:I:1 pbc="F F F"
C      -0.17360000      -0.49320000       0.46140000        6 
C      -1.29420000       0.22350000      -0.29780000        6 
C      -0.16210000      -1.98570000       0.14850000        6 
C      -1.29630000       1.71730000       0.01060000        6 
C       2.26610000       0.36400000      -0.21070000        6 
H       0.95070000       0.00300000       0.13020000        1 
H      -0.31280000      -0.35510000       1.55600000        1 
H      -1.15410000       0.08260000      -1.39170000        1 
H      -2.27830000      -0.20600000      -0.00890000        1 
H      -1.12520000      -2.45110000       0.44850000        1 
H       0.00390000      -2.14950000      -0.93740000        1 
H       0.66060000      -2.47500000       0.71080000        1 
H      -1.45810000       1.88710000       1.09650000        1 
H      -0.33090000       2.17570000      -0.29290000        1 
H      -2.11610000       2.21170000      -0.55190000        1 
H       2.94400000      -0.50570000      -0.33200000        1 
H       2.24190000       0.94830000      -1.15340000        1 
H       2.63460000       1.00790000       0.61410000        1 
