19
Properties=species:S:1:pos:R:3:Z:I:1 pbc="F F F"
O       3.06380000       0.81240000      -0.45240000        8 
O      -0.01230000       0.56430000       2.69560000        8 
O       1.94700000       0.35440000       0.07930000        8 
C      -1.69570000       0.48170000      -0.27680000        6 
C      -1.36520000      -0.33300000       0.97580000        6 
C      -3.01710000       0.03230000      -0.89360000        6 
C       3.88080000      -0.30920000      -0.64430000        6 
C      -0.06190000       0.11870000       1.56030000        6 
H      -0.88690000       0.35750000      -1.03020000        1 
H      -1.76950000       1.55980000      -0.01350000        1 
H      -1.27940000      -1.40930000       0.71370000        1 
H      -2.17870000      -0.21580000       1.72580000        1 
H      -3.84810000       0.17130000      -0.16960000        1 
H      -3.23000000       0.63880000      -1.79900000        1 
H      -2.96150000      -1.03760000      -1.18780000        1 
H       4.10080000      -0.80440000       0.32720000        1 
H       3.39910000      -1.03020000      -1.34120000        1 
H       4.84140000       0.01830000      -1.09260000        1 
H       1.07340000       0.02980000       0.82330000        1 
