18
Properties=species:S:1:pos:R:3:Z:I:1 pbc="F F F"
O       1.10350000       1.13700000       1.40980000        8 
O      -3.26840000      -0.86090000       0.13290000        8 
C       0.61530000      -0.98120000       0.37110000        6 
C       0.30350000      -0.59380000      -1.08340000        6 
C       1.67130000      -0.08500000       1.02800000        6 
C      -0.46200000       0.72230000      -1.19760000        6 
C      -2.68640000       0.21060000       0.11880000        6 
H      -0.32250000      -1.39620000      -1.53010000        1 
H       1.24250000      -0.53260000      -1.67530000        1 
H      -0.31570000      -0.98180000       0.97930000        1 
H       1.00430000      -2.02280000       0.36760000        1 
H       2.52110000       0.08510000       0.32930000        1 
H       2.06200000      -0.60170000       1.93290000        1 
H      -1.54990000       0.70770000      -0.38480000        1 
H      -0.80390000       0.86110000      -2.24490000        1 
H       0.19090000       1.57950000      -0.93360000        1 
H       1.83950000       1.66990000       1.80870000        1 
H      -3.14510000       1.08280000       0.57130000        1 
