17
Properties=species:S:1:pos:R:3:Z:I:1 pbc="F F F"
O       1.57180000      -0.81010000       1.02830000        8 
O       3.29770000       0.44150000       0.14380000        8 
O       3.89540000       1.60180000      -0.02480000        8 
C      -0.21330000      -0.44080000      -0.55140000        6 
C      -1.17790000       0.17200000       0.47210000        6 
C       0.74040000      -1.44600000       0.09950000        6 
C      -2.14080000       1.14930000      -0.19580000        6 
H      -0.60390000       0.71440000       1.25450000        1 
H      -1.76660000      -0.63400000       0.96220000        1 
H      -0.79710000      -0.96700000      -1.33810000        1 
H       0.37850000       0.36340000      -1.04100000        1 
H       0.16010000      -2.24080000       0.61480000        1 
H       1.36130000      -1.93100000      -0.68480000        1 
H      -2.74920000       0.62720000      -0.96480000        1 
H      -2.82460000       1.57740000       0.56720000        1 
H      -1.57800000       1.97910000      -0.67400000        1 
H       2.44630000      -0.15640000       0.33220000        1 
