16
Properties=species:S:1:pos:R:3:Z:I:1 pbc="F F F"
O      -0.52250000      -1.65120000       0.90250000        8 
C      -0.88580000       0.14980000      -0.65590000        6 
C       0.20880000       1.16230000      -0.28150000        6 
C      -1.42230000      -0.63970000       0.54360000        6 
C       1.52460000       0.49710000       0.11560000        6 
H      -0.14130000       1.82000000       0.54340000        1 
H       0.40200000       1.80760000      -1.16550000        1 
H      -1.73330000       0.71660000      -1.09940000        1 
H      -0.51520000      -0.54920000      -1.43730000        1 
H      -1.60100000       0.04220000       1.40520000        1 
H      -2.39320000      -1.10270000       0.25810000        1 
H       1.89530000      -0.37560000      -0.80490000        1 
H       2.31570000       1.27070000       0.20940000        1 
H       1.42570000      -0.01250000       1.09610000        1 
H      -0.92050000      -2.10760000       1.68870000        1 
H       2.36310000      -1.02780000      -1.31820000        1 
