22
Properties=species:S:1:pos:R:3:Z:I:1 pbc="F F F"
O      -0.15030000       1.51460000      -0.07430000        8 
C       1.72740000       0.34360000      -1.02460000        6 
C       1.53870000      -1.10300000      -0.53940000        6 
C       1.24390000       1.39360000      -0.01810000        6 
C       0.07230000      -1.52280000      -0.46070000        6 
C      -2.21400000       0.45970000       0.38580000        6 
C      -1.51110000      -0.46440000       1.36290000        6 
H       2.01530000      -1.23870000       0.45530000        1 
H       2.05610000      -1.77920000      -1.25410000        1 
H       2.81450000       0.50430000      -1.19320000        1 
H       1.21930000       0.49140000      -2.00280000        1 
H       1.70320000       2.37330000      -0.27870000        1 
H       1.56740000       1.11950000       1.01130000        1 
H      -0.52550000      -0.93140000       0.56800000        1 
H      -0.46000000      -1.27080000      -1.40240000        1 
H       0.01140000      -2.62040000      -0.30380000        1 
H      -3.28550000       0.55670000       0.66050000        1 
H      -2.13410000       0.04570000      -0.64090000        1 
H      -1.73620000       1.46110000       0.41150000        1 
H      -1.57900000      -0.05240000       2.39180000        1 
H      -1.97800000      -1.47150000       1.33670000        1 
H      -0.39580000       2.19100000       0.60910000        1 
