19
Properties=species:S:1:pos:R:3:Z:I:1 pbc="F F F"
C      -0.49160000       0.68410000       0.40980000        6 
C      -1.35730000      -0.07720000      -0.59890000        6 
C      -0.42730000       2.16980000       0.07080000        6 
C      -1.41350000      -1.56370000      -0.26120000        6 
C       2.84080000      -0.99790000       0.59570000        6 
C       1.67190000      -0.71720000       0.02690000        6 
H       0.65950000       0.22270000       0.40180000        1 
H      -0.91310000       0.56560000       1.43190000        1 
H      -0.93510000       0.04360000      -1.62030000        1 
H      -2.39060000       0.33350000      -0.59260000        1 
H       0.20720000       2.69240000       0.81690000        1 
H      -1.44450000       2.61570000       0.09300000        1 
H       0.01670000       2.31540000      -0.93690000        1 
H      -0.39400000      -2.00410000      -0.28570000        1 
H      -2.04570000      -2.09050000      -1.00670000        1 
H      -1.85420000      -1.71400000       0.74750000        1 
H       2.86700000      -1.46390000       1.57450000        1 
H       3.76950000      -0.76320000       0.08570000        1 
H       1.63420000      -0.25100000      -0.95230000        1 
