21
Properties=species:S:1:pos:R:3:Z:I:1 pbc="F F F"
C       0.91880000       0.21660000       0.16410000        6 
C       2.25440000      -0.05890000      -0.53530000        6 
C      -0.19390000       0.46190000      -0.84910000        6 
C       3.36690000      -0.30420000       0.47960000        6 
C      -3.33330000      -0.74360000       0.26590000        6 
C      -2.56530000       0.56350000       0.33040000        6 
H       1.01280000       1.11230000       0.81560000        1 
H       0.63960000      -0.65270000       0.79810000        1 
H       2.15850000      -0.95450000      -1.18740000        1 
H       2.53180000       0.81100000      -1.16990000        1 
H      -1.33140000       0.69600000      -0.20380000        1 
H      -0.32930000      -0.42960000      -1.49810000        1 
H       0.04570000       1.34390000      -1.48060000        1 
H       3.12550000      -1.18550000       1.11130000        1 
H       4.32050000      -0.50050000      -0.05430000        1 
H       3.50040000       0.58730000       1.12890000        1 
H      -2.78980000      -1.52320000       0.83910000        1 
H      -4.34690000      -0.60890000       0.69890000        1 
H      -3.42590000      -1.06890000      -0.79120000        1 
H      -3.09860000       1.34680000      -0.24840000        1 
H      -2.46070000       0.89120000       1.38620000        1 
