19
Properties=species:S:1:pos:R:3:Z:I:1 pbc="F F F"
O      -3.58330000      -0.28340000      -0.72270000        8 
C      -1.47060000      -0.84270000       0.28740000        6 
C      -0.11460000      -0.30240000       0.76620000        6 
C      -2.30270000       0.21540000      -0.44720000        6 
C       0.85660000      -0.04170000      -0.38340000        6 
C       3.27310000       0.82820000       0.31340000        6 
H       0.34520000      -1.05450000       1.44280000        1 
H      -0.25780000       0.63200000       1.35060000        1 
H      -2.04230000      -1.18500000       1.17750000        1 
H      -1.31580000      -1.72430000      -0.37230000        1 
H      -2.40880000       1.11650000       0.19370000        1 
H      -1.80360000       0.52140000      -1.39370000        1 
H       2.01880000       0.28190000       0.10480000        1 
H       0.50110000       0.79730000      -1.01670000        1 
H       0.97610000      -0.95320000      -1.00680000        1 
H       3.93510000       0.76340000      -0.57450000        1 
H       3.72170000       0.25650000       1.15170000        1 
H       3.15640000       1.89060000       0.61090000        1 
H      -3.48460000      -0.91590000      -1.48170000        1 
