17
Properties=species:S:1:pos:R:3:Z:I:1 pbc="F F F"
O      -1.85490000       2.82060000      -0.24800000        8 
C      -0.12100000      -0.12160000      -0.36970000        6 
C      -0.49670000       1.05150000       0.54320000        6 
C      -1.00120000      -1.34940000      -0.14140000        6 
C      -1.80810000       1.66710000       0.14860000        6 
C       2.47100000      -0.60780000      -0.08910000        6 
H       1.08540000      -0.44750000      -0.12840000        1 
H      -0.18170000       0.18920000      -1.43580000        1 
H      -0.55170000       0.71400000       1.60020000        1 
H       0.30680000       1.81720000       0.47680000        1 
H      -2.05290000      -1.13790000      -0.42550000        1 
H      -0.63130000      -2.18740000      -0.76850000        1 
H      -0.96060000      -1.66110000       0.92380000        1 
H      -2.72480000       1.09200000       0.22290000        1 
H       2.83340000      -1.64060000       0.09190000        1 
H       2.80820000      -0.26770000      -1.08980000        1 
H       2.88010000       0.06920000       0.68880000        1 
