17
Properties=species:S:1:pos:R:3:Z:I:1 pbc="F F F"
O       2.54300000       1.16090000      -0.42530000        8 
O      -2.25810000       1.63990000      -0.26020000        8 
C       1.08230000      -0.70220000       0.01250000        6 
C      -0.21360000      -1.16000000       0.69880000        6 
C       1.27560000       0.81820000       0.06560000        6 
C      -1.46660000      -0.76400000      -0.08120000        6 
H      -0.19240000      -2.26810000       0.78420000        1 
H      -0.26960000      -0.74450000       1.72830000        1 
H       1.09310000      -1.04590000      -1.04500000        1 
H       1.93910000      -1.18460000       0.53150000        1 
H       0.48800000       1.33600000      -0.52580000        1 
H       1.20240000       1.16650000       1.11780000        1 
H      -1.61280000       0.40390000      -0.06950000        1 
H      -1.40080000      -1.12000000      -1.13130000        1 
H      -2.35750000      -1.22720000       0.39300000        1 
H       2.49850000       1.07250000      -1.41330000        1 
H      -2.35080000       2.61850000      -0.38000000        1 
