16
Properties=species:S:1:pos:R:3:Z:I:1 pbc="F F F"
O       2.90530000       0.14580000       0.14490000        8 
O      -1.16230000       0.16520000      -2.58210000        8 
C       0.51620000       0.24020000       0.41450000        6 
C      -0.81910000      -0.22990000      -0.17130000        6 
C       1.69440000      -0.31940000      -0.38600000        6 
C      -1.99660000       0.33020000       0.62010000        6 
H      -0.91300000       0.14690000      -1.34270000        1 
H      -0.86760000      -1.34060000      -0.15210000        1 
H       0.55970000       1.35130000       0.39490000        1 
H       0.59830000      -0.09860000       1.47070000        1 
H       1.62050000       0.01970000      -1.44140000        1 
H       1.67340000      -1.43340000      -0.37960000        1 
H      -2.94730000      -0.02590000       0.17080000        1 
H      -1.98510000       1.44050000       0.59290000        1 
H      -1.95080000      -0.01280000       1.67580000        1 
H       3.07390000      -0.37910000       0.97060000        1 
