20
Properties=species:S:1:pos:R:3:Z:I:1 pbc="F F F"
O      -1.17640000       1.62570000       1.15610000        8 
O       1.53930000       0.92310000      -0.04900000        8 
C      -1.44180000      -0.63890000       0.39550000        6 
C      -0.37110000      -0.55550000      -0.69950000        6 
C      -2.10780000       0.71590000       0.63900000        6 
C       0.26830000      -1.91770000      -0.94920000        6 
C       2.89870000       1.15100000       0.15790000        6 
H       0.49230000       0.22170000      -0.36980000        1 
H      -0.82880000      -0.19410000      -1.64610000        1 
H      -0.98390000      -0.99620000       1.34390000        1 
H      -2.22380000      -1.36850000       0.09090000        1 
H      -2.53400000       1.10420000      -0.31340000        1 
H      -2.93770000       0.58090000       1.36790000        1 
H      -0.49850000      -2.64960000      -1.28140000        1 
H       0.75520000      -2.28980000      -0.02280000        1 
H       1.03920000      -1.82520000      -1.74270000        1 
H       3.45530000       0.94280000      -0.77890000        1 
H       3.26730000       0.48290000       0.96320000        1 
H       3.05550000       2.20860000       0.45400000        1 
H      -1.66730000       2.47860000       1.28430000        1 
