16
Properties=species:S:1:pos:R:3:Z:I:1 pbc="F F F"
O       1.90980000      -0.70440000       1.70660000        8 
C       0.65030000       0.33460000      -0.05960000        6 
C      -0.44290000       0.14470000      -1.12080000        6 
C       0.84150000      -0.90440000       0.82180000        6 
C      -1.84730000       0.11640000      -0.51960000        6 
H      -0.26280000      -0.79030000      -1.69460000        1 
H      -0.38780000       0.99430000      -1.83510000        1 
H       0.37010000       1.35470000       0.68360000        1 
H       1.60760000       0.55010000      -0.58240000        1 
H       1.02500000      -1.80570000       0.19310000        1 
H      -0.07410000      -1.08220000       1.42220000        1 
H      -1.98980000      -0.78930000       0.10540000        1 
H      -2.02600000       1.02370000       0.09570000        1 
H      -2.59770000       0.09220000      -1.33780000        1 
H       2.74260000      -0.83190000       1.18110000        1 
H       0.48150000       2.29770000       0.94050000        1 
