18
Properties=species:S:1:pos:R:3:Z:I:1 pbc="F F F"
O      -0.38170000      -0.03800000      -1.01680000        8 
O       3.18990000       0.53120000      -0.77310000        8 
O       0.93440000      -0.01430000      -0.93030000        8 
C      -2.38150000       0.65420000       0.12160000        6 
C      -0.85230000       0.62910000       0.12490000        6 
C      -2.97450000      -0.74780000       0.24600000        6 
C       3.93400000      -0.33790000       0.02650000        6 
H      -2.74370000       1.12640000      -0.81740000        1 
H      -2.73490000       1.27060000       0.97640000        1 
H      -0.48460000       1.68030000       0.12710000        1 
H      -0.49250000       0.12180000       1.04940000        1 
H      -2.67180000      -1.37630000      -0.61820000        1 
H      -2.63400000      -1.22910000       1.18750000        1 
H      -4.08270000      -0.68120000       0.26280000        1 
H       3.83650000      -1.37610000      -0.35470000        1 
H       5.00190000      -0.03890000      -0.00210000        1 
H       3.57040000      -0.28900000       1.07440000        1 
H       1.96700000       0.11500000      -0.68420000        1 
