19
Properties=species:S:1:pos:R:3:Z:I:1 pbc="F F F"
O       0.46480000      -1.15480000      -1.30050000        8 
O      -0.84090000      -0.97910000      -1.36700000        8 
C       2.46140000      -0.27190000      -0.32560000        6 
C       0.94490000      -0.14090000      -0.45830000        6 
C       3.03500000       0.81140000       0.58350000        6 
C      -2.90290000      -0.98040000       0.09990000        6 
C      -3.40040000       0.35830000       0.41770000        6 
C      -3.80990000       1.46140000       0.67930000        6 
H       2.92930000      -0.18830000      -1.33060000        1 
H       2.71110000      -1.26980000       0.09600000        1 
H       0.48050000      -0.23260000       0.55040000        1 
H       0.70060000       0.85780000      -0.88780000        1 
H       2.81770000       1.81870000       0.16840000        1 
H       4.13600000       0.68860000       0.65880000        1 
H       2.59840000       0.73190000       1.60190000        1 
H      -1.89490000      -0.88530000      -0.78200000        1 
H      -3.72270000      -1.58530000      -0.33950000        1 
H      -2.53840000      -1.46960000       1.02660000        1 
H      -4.16960000       2.42990000       0.90900000        1 
