27
Properties=species:S:1:pos:R:3:Z:I:1 pbc="F F F"
O      -3.01500000       0.40320000      -1.79950000        8 
O       1.76200000      -0.94840000       0.36600000        8 
O       0.77160000      -0.26580000      -0.17780000        8 
C      -2.63640000       0.56120000      -0.45440000        6 
C      -2.44130000      -0.80370000       0.23230000        6 
C       3.44850000       0.79510000       0.26250000        6 
C       2.49950000      -0.03260000       1.13820000        6 
C      -3.67070000       1.41040000       0.29200000        6 
C       4.48020000      -0.08070000      -0.44520000        6 
C      -1.34070000      -1.61920000      -0.44020000        6 
H      -1.67030000       1.11120000      -0.43060000        1 
H       2.86530000       1.36300000      -0.49410000        1 
H       3.98140000       1.52930000       0.90450000        1 
H      -3.39030000      -1.38280000       0.21030000        1 
H      -2.15790000      -0.64530000       1.29550000        1 
H       1.82810000       0.64500000       1.71550000        1 
H       3.09520000      -0.60050000       1.88450000        1 
H       5.08210000      -0.64580000       0.29790000        1 
H       3.97810000      -0.79510000      -1.13150000        1 
H       5.16370000       0.55990000      -1.04150000        1 
H      -0.16150000      -0.92460000      -0.41700000        1 
H      -1.61290000      -1.84830000      -1.49220000        1 
H      -1.20100000      -2.57630000       0.10510000        1 
H      -4.65360000       0.89310000       0.32210000        1 
H      -3.33160000       1.60130000       1.33250000        1 
H      -3.79610000       2.38720000      -0.22160000        1 
H      -3.87650000      -0.09100000      -1.81310000        1 
