27
Properties=species:S:1:pos:R:3:Z:I:1 pbc="F F F"
O       1.66090000      -1.22780000      -0.41440000        8 
O      -2.39540000       2.06410000      -1.26790000        8 
O       0.41060000      -1.51550000      -0.10740000        8 
C      -1.50850000       0.12190000      -0.11910000        6 
C      -2.77380000      -0.70570000       0.15410000        6 
C       3.79130000      -0.69610000       0.56170000        6 
C       2.32190000      -1.04000000       0.80950000        6 
C      -1.57780000       0.93530000      -1.41850000        6 
C       3.95010000       0.64600000      -0.14990000        6 
C      -3.97260000       0.14930000       0.56240000        6 
H       4.26270000      -1.49620000      -0.04940000        1 
H       4.32150000      -0.64970000       1.53760000        1 
H      -3.03450000      -1.31400000      -0.73870000        1 
H      -2.55070000      -1.41010000       0.98400000        1 
H      -0.48260000      -0.73300000      -0.22920000        1 
H      -1.28810000       0.78960000       0.74240000        1 
H       2.27780000      -1.97650000       1.41050000        1 
H       1.84240000      -0.21880000       1.39010000        1 
H      -1.97390000       0.30550000      -2.24300000        1 
H      -0.54960000       1.24960000      -1.70740000        1 
H       3.46480000       0.61660000      -1.14850000        1 
H       3.49680000       1.46000000       0.45500000        1 
H       5.02940000       0.86650000      -0.28860000        1 
H      -4.79790000      -0.51180000       0.90120000        1 
H      -3.70090000       0.83030000       1.39680000        1 
H      -4.34180000       0.74300000      -0.29870000        1 
H      -1.88200000       2.71750000      -0.72460000        1 
