23
Properties=species:S:1:pos:R:3:Z:I:1 pbc="F F F"
O       0.74330000      -1.74510000       0.29520000        8 
O      -0.37380000      -1.68320000      -0.40370000        8 
C       2.77520000      -0.57090000       0.75250000        6 
C      -2.43670000      -0.24630000      -0.58870000        6 
C       1.45720000      -0.57950000      -0.02040000        6 
C       3.59210000       0.68060000       0.44340000        6 
C      -2.09520000       1.09710000      -1.22370000        6 
C      -3.14720000      -0.06430000       0.74790000        6 
H       3.36990000      -1.46970000       0.47980000        1 
H       2.56450000      -0.60710000       1.84350000        1 
H      -1.30620000      -0.93870000      -0.39330000        1 
H      -3.09030000      -0.82370000      -1.27750000        1 
H       1.67400000      -0.55050000      -1.11300000        1 
H       0.86200000       0.31920000       0.26180000        1 
H       3.02570000       1.59200000       0.73060000        1 
H       3.83500000       0.72530000      -0.63970000        1 
H       4.54110000       0.65620000       1.01930000        1 
H      -1.57710000       0.92680000      -2.19060000        1 
H      -1.42170000       1.67650000      -0.55730000        1 
H      -3.02050000       1.68220000      -1.41240000        1 
H      -2.49610000       0.49040000       1.45630000        1 
H      -4.09840000       0.49230000       0.60780000        1 
H      -3.37660000      -1.05980000       1.18220000        1 
