27
Properties=species:S:1:pos:R:3:Z:I:1 pbc="F F F"
O       1.52870000      -1.31140000       0.60830000        8 
O      -1.68860000       1.57860000       0.56510000        8 
O       0.26170000      -0.96600000       0.73360000        8 
C      -2.86440000      -0.19410000      -0.61610000        6 
C       3.71610000      -0.43060000       0.21340000        6 
C      -2.62860000       1.31760000      -0.44440000        6 
C       2.22870000      -0.11890000       0.37180000        6 
C      -1.56750000      -0.91950000      -0.98990000        6 
C      -3.48560000      -0.81320000       0.64140000        6 
C       4.52460000       0.83730000      -0.04650000        6 
H      -3.58470000      -0.33040000      -1.45300000        1 
H       4.09250000      -0.91830000       1.13890000        1 
H       3.85840000      -1.13300000      -0.63640000        1 
H       2.09090000       0.57940000       1.22910000        1 
H       1.85500000       0.36300000      -0.56070000        1 
H      -3.59370000       1.83340000      -0.23090000        1 
H      -2.24520000       1.73760000      -1.39890000        1 
H       4.18090000       1.32960000      -0.98120000        1 
H       4.41610000       1.54530000       0.80270000        1 
H       5.59850000       0.57710000      -0.15660000        1 
H      -0.65530000      -0.82920000       0.02650000        1 
H      -1.12970000      -0.47540000      -1.90930000        1 
H      -1.77430000      -1.99280000      -1.18860000        1 
H      -3.73450000      -1.88000000       0.45660000        1 
H      -2.78340000      -0.75770000       1.50050000        1 
H      -4.42370000      -0.28100000       0.90750000        1 
H      -2.19270000       1.65260000       1.41690000        1 
