27
Properties=species:S:1:pos:R:3:Z:I:1 pbc="F F F"
O       1.67230000       0.52560000       0.44020000        8 
O      -3.64730000       1.99240000      -0.64830000        8 
O       0.49750000      -0.07410000       0.45030000        8 
C      -2.79090000       0.34460000       0.88300000        6 
C      -1.80410000      -0.81700000       1.06590000        6 
C       3.63860000       0.84800000      -0.90310000        6 
C       2.25880000       0.19770000      -0.79220000        6 
C      -2.85460000       0.83930000      -0.56650000        6 
C       4.61640000       0.28870000       0.12820000        6 
C      -2.29820000      -2.11740000       0.43510000        6 
H       3.54410000       1.94690000      -0.76450000        1 
H       4.04510000       0.66230000      -1.92080000        1 
H      -0.61300000      -0.49330000       0.54410000        1 
H      -1.66080000      -0.98930000       2.15460000        1 
H      -2.45800000       1.18660000       1.52800000        1 
H      -3.80480000       0.03930000       1.22260000        1 
H       1.62470000       0.57700000      -1.62540000        1 
H       2.36110000      -0.90710000      -0.89410000        1 
H      -3.26500000       0.04970000      -1.23460000        1 
H      -1.83230000       1.09260000      -0.91920000        1 
H       4.25650000       0.49630000       1.15820000        1 
H       5.60850000       0.76990000      -0.00260000        1 
H       4.73400000      -0.80780000      -0.00580000        1 
H      -3.30800000      -2.37730000       0.81770000        1 
H      -1.59850000      -2.93940000       0.69440000        1 
H      -2.33060000      -2.02830000      -0.67010000        1 
H      -4.59150000       1.69400000      -0.57530000        1 
