27
Properties=species:S:1:pos:R:3:Z:I:1 pbc="F F F"
O      -2.01110000      -0.83430000       1.84200000        8 
O       4.61940000       1.46360000      -1.23330000        8 
O      -1.08430000      -1.52680000       1.20630000        8 
C       3.28100000      -0.35250000      -0.43640000        6 
C       1.88140000      -0.98550000      -0.40650000        6 
C      -3.32160000      -0.19420000      -0.09900000        6 
C      -3.21900000      -1.06550000       1.15910000        6 
C       3.29830000       1.01040000      -1.13250000        6 
C      -3.31030000       1.29550000       0.23700000        6 
C       0.92530000      -0.26260000       0.53970000        6 
H      -2.47950000      -0.42380000      -0.78700000        1 
H      -4.26940000      -0.43550000      -0.62690000        1 
H       1.97760000      -2.03740000      -0.06150000        1 
H       1.44650000      -1.00600000      -1.42910000        1 
H       3.96050000      -1.03870000      -0.98770000        1 
H       3.67400000      -0.25000000       0.59880000        1 
H      -3.33180000      -2.14070000       0.88620000        1 
H      -4.06140000      -0.82100000       1.84090000        1 
H       2.70300000       1.74320000      -0.54500000        1 
H       2.85920000       0.91600000      -2.15120000        1 
H      -4.15490000       1.54530000       0.91400000        1 
H      -2.35280000       1.57650000       0.72460000        1 
H      -3.41740000       1.88690000      -0.69660000        1 
H      -0.24420000      -0.96910000       0.61960000        1 
H       0.69120000       0.75420000       0.16200000        1 
H       1.36490000      -0.18940000       1.55710000        1 
H       4.57520000       2.34130000      -1.69460000        1 
