27
Properties=species:S:1:pos:R:3:Z:I:1 pbc="F F F"
O      -1.66310000       0.03820000      -1.16270000        8 
O       2.17670000       1.95670000      -1.00310000        8 
O      -0.47600000       0.59180000      -1.00660000        8 
C       2.54290000      -0.08170000       0.22570000        6 
C      -3.77930000      -0.27150000      -0.09380000        6 
C       2.00210000       0.56880000      -1.05570000        6 
C      -2.38130000       0.33740000       0.00450000        6 
C       2.21300000      -1.57820000       0.24180000        6 
C       4.05650000       0.13180000       0.35910000        6 
C      -4.60390000       0.02630000       1.15530000        6 
H       2.04210000       0.39120000       1.09930000        1 
H      -4.30230000       0.14440000      -0.98230000        1 
H      -3.69500000      -1.37290000      -0.21970000        1 
H      -2.47120000       1.44170000       0.12310000        1 
H      -1.85900000      -0.08800000       0.89200000        1 
H       0.70680000       0.30040000      -1.17110000        1 
H       2.52950000       0.15790000      -1.94610000        1 
H      -4.11120000      -0.40160000       2.05430000        1 
H      -4.72140000       1.12300000       1.28790000        1 
H      -5.61150000      -0.42870000       1.05240000        1 
H       2.57990000      -2.04150000       1.18260000        1 
H       2.68720000      -2.09410000      -0.62090000        1 
H       1.11370000      -1.72990000       0.19070000        1 
H       4.29200000       1.21640000       0.40000000        1 
H       4.42740000      -0.33370000       1.29720000        1 
H       4.59430000      -0.32040000      -0.50190000        1 
H       1.71120000       2.31590000      -1.80180000        1 
