16
Properties=species:S:1:pos:R:3:Z:I:1 pbc="F F F"
O       0.29480000       0.63460000       0.94930000        8 
O       4.17120000      -0.36360000      -1.23350000        8 
O       1.22250000       0.79970000       0.02490000        8 
C      -1.51880000      -0.01570000      -0.52810000        6 
C      -0.91670000       1.06500000       0.37860000        6 
C      -1.85120000      -1.28920000       0.24650000        6 
C       3.61270000       0.04380000      -0.22890000        6 
H      -0.80990000      -0.25750000      -1.34920000        1 
H      -2.45120000       0.37860000      -0.98690000        1 
H      -0.78130000       2.01050000      -0.19650000        1 
H      -1.63140000       1.29180000       1.19850000        1 
H      -0.92920000      -1.73300000       0.67830000        1 
H      -2.31160000      -2.03090000      -0.43960000        1 
H      -2.57030000      -1.06770000       1.06370000        1 
H       2.32330000       0.46040000      -0.29140000        1 
H       4.14690000       0.07310000       0.71440000        1 
