21
Properties=species:S:1:pos:R:3:Z:I:1 pbc="F F F"
O      -0.70390000      -0.07420000       1.22430000        8 
O       3.59960000      -0.43170000       1.04990000        8 
O       0.28980000       0.47720000       0.55270000        8 
C      -2.50970000       0.63090000      -0.23740000        6 
C      -1.79710000       0.80370000       1.10970000        6 
C       3.25900000      -0.71800000      -0.27700000        6 
C      -3.08370000      -0.77460000      -0.40230000        6 
C       2.40220000       0.40620000      -0.83460000        6 
H      -1.80220000       0.84050000      -1.06840000        1 
H      -3.33990000       1.36710000      -0.30180000        1 
H      -2.51260000       0.58430000       1.93080000        1 
H      -1.48060000       1.86510000       1.23820000        1 
H       4.18050000      -0.81710000      -0.89280000        1 
H       2.68390000      -1.66920000      -0.32290000        1 
H      -3.61580000      -0.84610000      -1.37430000        1 
H      -3.80440000      -0.99580000       0.41360000        1 
H      -2.27020000      -1.53050000      -0.38910000        1 
H       1.26410000       0.53370000      -0.08520000        1 
H       2.12100000       0.17910000      -1.88460000        1 
H       2.96590000       1.36290000      -0.81020000        1 
H       4.15420000      -1.19360000       1.36130000        1 
