15
Properties=species:S:1:pos:R:3:Z:I:1 pbc="F F F"
O       0.61740000      -0.32260000       1.38030000        8 
O       1.68180000      -1.10330000       1.35510000        8 
O       3.59770000       0.31630000       0.94760000        8 
C      -1.26610000       0.38780000       0.08810000        6 
C      -0.01320000      -0.48520000       0.13600000        6 
C      -1.99030000       0.24700000      -1.24770000        6 
H      -0.98110000       1.45210000       0.23680000        1 
H      -1.95530000       0.09100000       0.90840000        1 
H      -0.30430000      -1.55120000      -0.00580000        1 
H       0.67720000      -0.17930000      -0.68320000        1 
H      -2.30580000      -0.80620000      -1.40660000        1 
H      -1.32700000       0.56150000      -2.08150000        1 
H      -2.89390000       0.89240000      -1.25020000        1 
H       2.45440000      -0.47910000       1.28570000        1 
H       4.00830000       0.97890000       0.33700000        1 
