22
Properties=species:S:1:pos:R:3:Z:I:1 pbc="F F F"
O      -1.59490000      -0.20080000      -2.15400000        8 
O      -0.44730000      -0.73140000      -1.77420000        8 
C      -2.72800000      -0.27540000      -0.02270000        6 
C      -2.04050000       0.59220000      -1.08210000        6 
C      -3.27720000       0.57580000       1.11850000        6 
C       2.50400000      -0.29800000      -0.31450000        6 
C       3.51990000      -0.29810000       0.74960000        6 
C       1.46750000      -1.12850000      -0.27720000        6 
C       4.55660000       0.53380000       0.71060000        6 
H      -2.00120000      -1.00730000       0.39110000        1 
H      -3.56420000      -0.83810000      -0.49160000        1 
H      -2.77440000       1.32540000      -1.48000000        1 
H      -1.20410000       1.17650000      -0.63100000        1 
H      -4.02850000       1.29830000       0.73430000        1 
H      -2.45380000       1.13170000       1.61560000        1 
H      -3.76680000      -0.08000000       1.86890000        1 
H       2.59200000       0.38720000      -1.14880000        1 
H       3.42910000      -0.98490000       1.58320000        1 
H       0.49730000      -1.10050000      -1.33130000        1 
H       1.33850000      -1.83080000       0.53720000        1 
H       5.29300000       0.51780000       1.50350000        1 
H       4.68280000       1.23500000      -0.10530000        1 
