26
Properties=species:S:1:pos:R:3:Z:I:1 pbc="F F F"
O      -2.23090000       0.64980000       0.98590000        8 
O      -1.18630000       1.43730000       0.81630000        8 
C       1.76080000       0.14600000      -0.35500000        6 
C       3.21020000       0.22020000      -0.85770000        6 
C      -3.77550000      -0.75390000      -0.20510000        6 
C      -2.56660000       0.17880000      -0.29300000        6 
C      -3.45890000      -2.02410000       0.58160000        6 
C       1.27550000       1.46430000       0.24380000        6 
C       4.22450000       0.31780000       0.28130000        6 
H      -4.62220000      -0.22070000       0.27950000        1 
H      -4.08920000      -1.03720000      -1.23310000        1 
H       1.10210000      -0.10630000      -1.21350000        1 
H       1.65640000      -0.66440000       0.39840000        1 
H       3.42740000      -0.70140000      -1.43990000        1 
H       3.33400000       1.08740000      -1.54240000        1 
H      -2.83210000       1.03510000      -0.95360000        1 
H      -1.70830000      -0.36950000      -0.74480000        1 
H      -4.35400000      -2.68090000       0.60090000        1 
H      -3.18160000      -1.77480000       1.62780000        1 
H      -2.62360000      -2.57740000       0.10200000        1 
H      -0.05670000       1.35810000       0.53920000        1 
H       1.82200000       1.69540000       1.18160000        1 
H       1.41260000       2.29510000      -0.48060000        1 
H       4.12170000       1.28410000       0.81710000        1 
H       5.25250000       0.26060000      -0.13450000        1 
H       4.08630000      -0.51970000       0.99770000        1 
