16
Properties=species:S:1:pos:R:3:Z:I:1 pbc="F F F"
O      -3.17290000       0.30340000       0.20420000        8 
C      -1.82170000       0.09720000       0.51370000        6 
C      -1.05240000      -0.33250000      -0.72820000        6 
C       2.25770000       0.47400000       0.47920000        6 
C       1.55750000      -0.62020000      -0.30490000        6 
H      -1.37050000       1.02280000       0.93700000        1 
H      -1.74750000      -0.70340000       1.27910000        1 
H       0.21680000      -0.55780000      -0.40630000        1 
H      -1.09240000       0.46670000      -1.49830000        1 
H      -1.49070000      -1.26440000      -1.14420000        1 
H       3.33560000       0.23070000       0.58870000        1 
H       2.15200000       1.44080000      -0.05570000        1 
H       1.79750000       0.56360000       1.48520000        1 
H       2.00670000      -0.71020000      -1.31640000        1 
H       1.65120000      -1.58960000       0.22840000        1 
H      -3.22710000       1.17880000      -0.26130000        1 
