11
Properties=species:S:1:pos:R:3:Z:I:1 pbc="F F F"
O      -1.47000000       0.97660000       0.52690000        8 
O       2.24360000       0.62770000      -0.07130000        8 
C      -1.19950000      -0.16750000      -0.23590000        6 
C       0.11940000      -0.79390000       0.19870000        6 
H      -2.01850000      -0.90160000      -0.08210000        1 
H      -1.16080000       0.08520000      -1.31970000        1 
H       1.00290000      -0.03680000       0.02090000        1 
H       0.07720000      -1.06010000       1.27620000        1 
H       0.30980000      -1.71400000      -0.39290000        1 
H      -0.88700000       1.69820000       0.17290000        1 
H       2.98290000       1.28620000      -0.09370000        1 
