11
Properties=species:S:1:pos:R:3:Z:I:1 pbc="F F F"
O      -1.00250000       1.48030000      -0.52070000        8 
O       2.11040000      -0.47430000      -0.13670000        8 
O       3.12870000      -0.54540000      -0.96740000        8 
C      -1.16090000       0.11640000      -0.24130000        6 
C      -0.16290000      -0.32370000       0.82110000        6 
H      -1.02230000      -0.49040000      -1.16440000        1 
H      -2.19180000      -0.05500000       0.13410000        1 
H       1.11360000      -0.13700000       0.36400000        1 
H      -0.31000000      -1.40000000       1.05100000        1 
H      -0.30970000       0.26770000       1.74970000        1 
H      -0.19250000       1.56140000      -1.08920000        1 
