10
Properties=species:S:1:pos:R:3:Z:I:1 pbc="F F F"
O      -1.44430000       0.71250000       0.47970000        8 
O       2.22440000       1.53570000       0.09060000        8 
C      -0.62140000      -0.42170000       0.48830000        6 
C       0.57030000      -0.21660000      -0.43750000        6 
H      -1.19480000      -1.32430000       0.17740000        1 
H      -0.25150000      -0.58650000       1.52200000        1 
H       1.22430000       0.80070000      -0.07430000        1 
H       0.22230000      -0.07410000      -1.48250000        1 
H       1.23360000      -1.10620000      -0.39730000        1 
H      -1.96300000       0.68050000      -0.36630000        1 
