15
Properties=species:S:1:pos:R:3:Z:I:1 pbc="F F F"
O       3.10730000      -0.72600000      -0.33130000        8 
O      -2.40060000       1.00210000       0.60270000        8 
O      -1.13090000       0.96960000       0.24700000        8 
C       1.81390000      -0.44520000       0.12970000        6 
C       1.11670000       0.53140000      -0.80750000        6 
C      -2.85570000      -0.31930000       0.50720000        6 
H       1.23230000      -1.39010000       0.16350000        1 
H       1.84730000      -0.02300000       1.15930000        1 
H      -0.15590000       0.76180000      -0.35950000        1 
H       1.66880000       1.49460000      -0.83590000        1 
H       1.06790000       0.10670000      -1.83260000        1 
H      -3.92610000      -0.35260000       0.79690000        1 
H      -2.76600000      -0.68990000      -0.53780000        1 
H      -2.28710000      -0.98030000       1.19810000        1 
H       3.66790000       0.06020000      -0.10000000        1 
