18
Properties=species:S:1:pos:R:3:Z:I:1 pbc="F F F"
O       2.80530000      -0.08560000      -0.99370000        8 
O      -1.42060000       1.23740000       0.09280000        8 
O      -0.33500000       0.56080000      -0.23320000        8 
C      -2.51410000       0.42730000      -0.25900000        6 
C      -2.77730000      -0.61880000       0.81940000        6 
C       2.13320000       1.07530000      -0.56530000        6 
C       2.70400000      -1.06800000       0.01070000        6 
H      -3.41240000       1.07390000      -0.34960000        1 
H      -2.36260000      -0.06560000      -1.24760000        1 
H      -3.67900000      -1.21010000       0.55430000        1 
H      -1.91120000      -1.30840000       0.90610000        1 
H      -2.94780000      -0.12170000       1.79780000        1 
H       0.85740000       0.81490000      -0.27100000        1 
H       2.14540000       1.81720000      -1.38990000        1 
H       2.64670000       1.53250000       0.30950000        1 
H       3.15930000      -0.72140000       0.96560000        1 
H       3.26310000      -1.96790000      -0.31820000        1 
H       1.64570000      -1.37180000       0.17120000        1 
