24
Properties=species:S:1:pos:R:3:Z:I:1 pbc="F F F"
O       2.25260000      -1.22270000      -0.49290000        8 
O      -1.70770000       2.00930000      -0.40580000        8 
O       1.21840000      -1.07520000       0.31410000        8 
C      -1.89450000      -0.40140000      -0.30400000        6 
C      -1.46640000       0.82800000      -1.12130000        6 
C       3.38800000      -0.84090000       0.24270000        6 
C      -1.08580000      -0.51170000       0.99290000        6 
C      -3.39920000      -0.37830000      -0.00770000        6 
C       3.54010000       0.67680000       0.24780000        6 
H      -1.68000000      -1.30610000      -0.91440000        1 
H       3.35430000      -1.23010000       1.28700000        1 
H       4.28340000      -1.28330000      -0.24300000        1 
H      -2.03160000       0.84850000      -2.08020000        1 
H      -0.38260000       0.75130000      -1.36400000        1 
H       2.67770000       1.14820000       0.76460000        1 
H       4.47270000       0.95710000       0.78150000        1 
H       3.59380000       1.05700000      -0.79430000        1 
H       0.25150000      -0.55230000       0.70460000        1 
H      -1.35330000      -1.44570000       1.53160000        1 
H      -1.28480000       0.35460000       1.65960000        1 
H      -3.97530000      -0.32250000      -0.95590000        1 
H      -3.66470000       0.49480000       0.62610000        1 
H      -3.69750000      -1.30750000       0.52320000        1 
H      -1.40910000       2.75220000      -0.99210000        1 
