13
Properties=species:S:1:pos:R:3:Z:I:1 pbc="F F F"
O       0.01060000      -0.04950000       0.46590000        8 
O       3.76180000       0.18430000      -1.07240000        8 
O       0.88880000      -0.98270000       0.15310000        8 
C      -1.18000000      -0.41410000      -0.17970000        6 
C      -2.25760000       0.61440000       0.12760000        6 
C       3.21610000       0.04110000       0.00870000        6 
H      -1.02540000      -0.45190000      -1.28180000        1 
H      -1.52390000      -1.41070000       0.17910000        1 
H      -1.94120000       1.61620000      -0.23300000        1 
H      -2.43790000       0.66090000       1.22270000        1 
H      -3.20300000       0.33070000      -0.38110000        1 
H       1.94440000      -0.42710000       0.06970000        1 
H       3.74730000       0.28810000       0.92120000        1 
