18
Properties=species:S:1:pos:R:3:Z:I:1 pbc="F F F"
O      -1.26450000      -0.65950000       0.74790000        8 
O       3.18070000       0.86560000       0.48990000        8 
O      -0.27590000      -0.01760000       0.15350000        8 
C      -2.30270000       0.27400000       0.91130000        6 
C       2.92490000       0.01930000      -0.59710000        6 
C      -3.10230000       0.42020000      -0.37940000        6 
C       1.95790000      -1.08420000      -0.19040000        6 
H      -2.98280000      -0.09640000       1.70730000        1 
H      -1.91810000       1.26660000       1.24290000        1 
H       3.88110000      -0.43800000      -0.92810000        1 
H       2.50250000       0.59620000      -1.45060000        1 
H      -3.95290000       1.11480000      -0.21530000        1 
H      -3.50030000      -0.56790000      -0.69400000        1 
H      -2.45860000       0.82860000      -1.18670000        1 
H       0.76650000      -0.53580000       0.20100000        1 
H       2.38370000      -1.67300000       0.64960000        1 
H       1.77770000      -1.76140000      -1.05170000        1 
H       2.38310000       1.44840000       0.58990000        1 
