24
Properties=species:S:1:pos:R:3:Z:I:1 pbc="F F F"
O      -1.31950000       0.95200000      -1.33040000        8 
O       2.06070000      -0.71810000       1.15360000        8 
O       0.91340000      -0.80070000       0.50600000        8 
C      -1.28820000      -0.25930000      -0.62350000        6 
C      -2.26540000      -0.20570000       0.56160000        6 
C       2.66940000       0.47700000       0.73260000        6 
C      -1.65850000      -1.39570000      -1.57390000        6 
C      -1.84280000       0.83320000       1.59770000        6 
C       3.37670000       0.27820000      -0.60410000        6 
H      -0.06140000      -0.49840000      -0.16840000        1 
H      -3.28820000       0.03670000       0.19860000        1 
H      -2.29940000      -1.19980000       1.05860000        1 
H       1.93460000       1.31250000       0.66130000        1 
H       3.42550000       0.76960000       1.49150000        1 
H       3.90120000       1.21370000      -0.89200000        1 
H       4.12180000      -0.54130000      -0.52180000        1 
H       2.64010000       0.02410000      -1.39520000        1 
H      -0.81960000       0.61410000       1.97060000        1 
H      -2.54580000       0.80680000       2.45680000        1 
H      -1.86420000       1.85290000       1.15850000        1 
H      -1.61020000      -2.37050000      -1.04360000        1 
H      -0.94080000      -1.42240000      -2.42080000        1 
H      -2.68350000      -1.24900000      -1.97700000        1 
H      -0.55610000       1.48990000      -0.99660000        1 
