24
Properties=species:S:1:pos:R:3:Z:I:1 pbc="F F F"
O       2.41300000       0.31720000       1.41450000        8 
O      -4.97980000       0.10650000      -0.76420000        8 
O       1.90270000      -0.59180000       0.60460000        8 
C      -2.71130000      -0.62500000      -0.56640000        6 
C      -1.30000000      -0.21740000      -0.12840000        6 
C      -3.70530000       0.51570000      -0.35360000        6 
C       3.80420000       0.29070000       1.21510000        6 
C      -0.30660000      -1.35450000      -0.34000000        6 
C       4.18590000       1.09970000      -0.02040000        6 
H      -1.30430000       0.05690000       0.94880000        1 
H      -0.96330000       0.66450000      -0.71520000        1 
H      -3.04240000      -1.50930000       0.02150000        1 
H      -2.70120000      -0.90120000      -1.64380000        1 
H       4.19000000      -0.75190000       1.12950000        1 
H       4.29240000       0.74890000       2.10110000        1 
H      -3.38860000       1.40210000      -0.94820000        1 
H      -3.73140000       0.79120000       0.72480000        1 
H       3.81710000       2.14260000       0.07920000        1 
H       3.74540000       0.64190000      -0.93120000        1 
H       5.29080000       1.11760000      -0.12860000        1 
H       0.93670000      -0.94850000       0.06310000        1 
H      -0.60270000      -2.24300000       0.25760000        1 
H      -0.26000000      -1.63240000      -1.41460000        1 
H      -5.58140000       0.87960000      -0.60520000        1 
