20
Properties=species:S:1:pos:R:3:Z:I:1 pbc="F F F"
O       1.75470000       0.82760000      -0.86260000        8 
O       0.63190000       0.20720000      -0.55080000        8 
C      -1.87460000       0.13370000      -0.35820000        6 
C       2.76840000      -0.14570000      -0.83070000        6 
C      -2.30220000      -1.08640000       0.45000000        6 
C      -2.48980000       1.41260000       0.19910000        6 
C       3.23660000      -0.38760000       0.60070000        6 
H      -0.53910000       0.23770000      -0.32130000        1 
H      -2.19010000       0.00390000      -1.41590000        1 
H       2.43740000      -1.10300000      -1.29660000        1 
H       3.62910000       0.22740000      -1.42480000        1 
H       3.58430000       0.56530000       1.05310000        1 
H       2.40700000      -0.80100000       1.21230000        1 
H       4.07670000      -1.11380000       0.60140000        1 
H      -1.97210000      -0.98260000       1.50530000        1 
H      -1.83410000      -1.99620000       0.01960000        1 
H      -3.40650000      -1.20360000       0.41840000        1 
H      -2.15500000       2.27840000      -0.40950000        1 
H      -2.16370000       1.56950000       1.24910000        1 
H      -3.59870000       1.35680000       0.16140000        1 
