24
Properties=species:S:1:pos:R:3:Z:I:1 pbc="F F F"
O       1.66400000      -1.20900000      -0.60910000        8 
O      -2.08360000       2.46510000      -0.12820000        8 
O       0.92090000      -0.21080000      -0.16870000        8 
C      -2.19970000       0.06130000       0.11290000        6 
C      -1.14090000      -0.00960000       1.21910000        6 
C      -1.96030000       1.25180000      -0.82080000        6 
C       2.57970000      -0.65150000      -1.51820000        6 
C      -1.36340000      -1.22040000       2.11880000        6 
C       3.75960000      -0.02840000      -0.77910000        6 
H       0.07700000      -0.10210000       0.66800000        1 
H      -1.17990000       0.91120000       1.84070000        1 
H      -2.16320000      -0.87230000      -0.48970000        1 
H      -3.21310000       0.14410000       0.56350000        1 
H       2.09640000       0.10310000      -2.18170000        1 
H       2.96220000      -1.46440000      -2.17090000        1 
H      -0.94060000       1.18750000      -1.25690000        1 
H      -2.68730000       1.21640000      -1.66370000        1 
H       4.24980000      -0.78940000      -0.13560000        1 
H       4.50060000       0.35340000      -1.51270000        1 
H       3.41480000       0.81700000      -0.14720000        1 
H      -1.29740000      -2.15690000       1.52550000        1 
H      -2.35980000      -1.16190000       2.60660000        1 
H      -0.58120000      -1.24380000       2.90610000        1 
H      -3.05450000       2.60950000       0.02110000        1 
