13
Properties=species:S:1:pos:R:3:Z:I:1 pbc="F F F"
O      -0.74000000      -1.32660000      -0.66040000        8 
O       0.37860000      -0.72450000      -1.01910000        8 
C      -1.26850000      -0.58000000       0.40690000        6 
C      -2.02700000       0.63730000      -0.11210000        6 
C       2.82930000       0.03910000      -0.18170000        6 
C       3.85500000       0.39750000       0.34010000        6 
H      -0.47500000      -0.26470000       1.12390000        1 
H      -1.97810000      -1.22530000       0.96650000        1 
H      -1.33490000       1.32460000      -0.64280000        1 
H      -2.48740000       1.18170000       0.73920000        1 
H      -2.82930000       0.31630000      -0.80990000        1 
H       1.32160000      -0.48760000      -0.94870000        1 
H       4.75570000       0.71220000       0.79830000        1 
