18
Properties=species:S:1:pos:R:3:Z:I:1 pbc="F F F"
O       1.78410000      -0.78930000      -0.06420000        8 
O       0.61760000      -0.17860000      -0.14410000        8 
C       2.69870000       0.18790000       0.35490000        6 
C       4.08220000      -0.43250000       0.47510000        6 
C      -4.20940000       0.38460000      -0.34380000        6 
C      -2.75290000       0.40600000       0.01200000        6 
C      -1.85590000      -0.34950000      -0.62600000        6 
H       2.40120000       0.59420000       1.34810000        1 
H       2.74210000       1.01850000      -0.38560000        1 
H       4.06590000      -1.25730000       1.21890000        1 
H       4.40570000      -0.83450000      -0.50850000        1 
H       4.81090000       0.33700000       0.80680000        1 
H      -4.42170000      -0.31930000      -1.17710000        1 
H      -4.79820000       0.07440000       0.54420000        1 
H      -4.52650000       1.40370000      -0.64790000        1 
H      -2.41830000       1.05640000       0.81350000        1 
H      -0.47650000      -0.28810000      -0.24310000        1 
H      -2.14920000      -1.01360000      -1.43330000        1 
