12
Properties=species:S:1:pos:R:3:Z:I:1 pbc="F F F"
O      -0.06950000      -1.35850000      -0.34390000        8 
O       3.20780000       0.40830000      -0.37020000        8 
O       1.08510000      -0.72320000      -0.42010000        8 
C      -0.89810000      -0.57880000       0.48160000        6 
C      -1.51990000       0.56750000      -0.30970000        6 
H      -0.34660000      -0.18380000       1.36640000        1 
H      -1.71490000      -1.22520000       0.86640000        1 
H      -2.08500000       0.16740000      -1.17810000        1 
H      -0.72930000       1.25660000      -0.67460000        1 
H      -2.21650000       1.13640000       0.34150000        1 
H       2.01810000      -0.37520000      -0.24140000        1 
H       3.26890000       0.90860000       0.48220000        1 
