24
Properties=species:S:1:pos:R:3:Z:I:1 pbc="F F F"
O       2.69860000       0.49970000       1.91920000        8 
O      -2.81090000      -1.62950000      -1.03010000        8 
O      -1.59690000      -1.18470000      -0.76370000        8 
C       2.82060000       0.32390000       0.53060000        6 
C       1.42810000       0.22070000      -0.11610000        6 
C      -3.62500000      -0.49410000      -1.18460000        6 
C       3.58930000       1.51120000      -0.04810000        6 
C       0.67680000      -1.02870000       0.33570000        6 
C      -4.06200000       0.04310000       0.17450000        6 
H       3.40510000      -0.59900000       0.30070000        1 
H       0.82340000       1.11780000       0.14000000        1 
H       1.53310000       0.17880000      -1.22200000        1 
H      -3.11360000       0.30490000      -1.77040000        1 
H      -4.53110000      -0.78940000      -1.75480000        1 
H      -4.58880000      -0.75060000       0.74550000        1 
H      -3.17940000       0.38580000       0.75470000        1 
H      -4.75140000       0.90200000       0.03270000        1 
H      -0.51630000      -1.10130000      -0.33110000        1 
H       1.26790000      -1.94090000       0.10690000        1 
H       0.46820000      -0.98660000       1.42550000        1 
H       3.72510000       1.38660000      -1.14370000        1 
H       3.04360000       2.45970000       0.14520000        1 
H       4.59260000       1.57490000       0.42410000        1 
H       2.70320000      -0.40430000       2.32930000        1 
