12
Properties=species:S:1:pos:R:3:Z:I:1 pbc="F F F"
O       0.29610000      -0.45410000       0.57890000        8 
O       1.41580000      -0.94350000       0.07940000        8 
O       3.08880000       0.75830000       0.42950000        8 
C      -0.61010000      -0.38920000      -0.49170000        6 
C      -1.93820000       0.16300000       0.00250000        6 
H      -0.77960000      -1.40490000      -0.91520000        1 
H      -0.21790000       0.28190000      -1.28910000        1 
H      -1.79470000       1.18260000       0.41910000        1 
H      -2.65930000       0.21650000      -0.84030000        1 
H      -2.35500000      -0.49840000       0.79160000        1 
H       2.04600000      -0.17280000       0.06240000        1 
H       3.50800000       1.26060000       1.17280000        1 
