11
Properties=species:S:1:pos:R:3:Z:I:1 pbc="F F F"
O       0.32430000      -1.28770000       0.13650000        8 
O       1.50700000      -0.83500000      -0.23900000        8 
O       2.67500000       0.34920000       1.40840000        8 
C      -0.63520000      -0.55080000      -0.58180000        6 
C      -0.90860000       0.78620000       0.09940000        6 
H      -1.57930000      -1.13510000      -0.60220000        1 
H      -0.32590000      -0.38900000      -1.64070000        1 
H       0.00380000       1.41880000       0.08650000        1 
H      -1.71980000       1.32050000      -0.43860000        1 
H      -1.22340000       0.61970000       1.15140000        1 
H       1.88210000      -0.29660000       0.62010000        1 
