8
Properties=species:S:1:pos:R:3:Z:I:1 pbc="F F F"
O      -0.20890000      -0.88540000      -0.34280000        8 
O       1.98240000      -0.27620000      -0.02790000        8 
O       2.90250000       0.66460000      -0.04720000        8 
C      -1.19690000       0.02610000       0.03280000        6 
H      -2.19390000      -0.38690000      -0.22460000        1 
H      -1.04950000       0.98450000      -0.50800000        1 
H      -1.14830000       0.20360000       1.12770000        1 
H       0.91260000      -0.33030000      -0.01000000        1 
