11
Properties=species:S:1:pos:R:3:Z:I:1 pbc="F F F"
O      -1.04160000       0.13220000       1.04200000        8 
C      -1.97010000       0.03820000       0.00320000        6 
C       2.07500000       0.27350000      -0.49270000        6 
C       1.33410000      -0.12180000       0.53860000        6 
H      -1.98370000      -0.99690000      -0.39930000        1 
H      -1.70540000       0.75110000      -0.80620000        1 
H      -2.97900000       0.28890000       0.39030000        1 
H       2.85690000      -0.36890000      -0.88450000        1 
H       1.89750000       1.24280000      -0.94510000        1 
H       0.01310000      -0.14920000       0.55480000        1 
H       1.50320000      -1.08980000       0.99890000        1 
