9
Properties=species:S:1:pos:R:3:Z:I:1 pbc="F F F"
O      -1.60940000      -0.07990000      -0.96180000        8 
C      -0.92540000       0.45460000       0.13350000        6 
C       1.65210000      -0.25710000       0.04850000        6 
H       0.24720000       0.01330000       0.16600000        1 
H      -0.89080000       1.55940000       0.03830000        1 
H      -1.45110000       0.19130000       1.07670000        1 
H      -1.54270000      -1.06490000      -0.86550000        1 
H       1.99620000      -1.23260000       0.44950000        1 
H       2.52390000       0.41590000      -0.08530000        1 
