7
Properties=species:S:1:pos:R:3:Z:I:1 pbc="F F F"
O       0.39340000       0.76600000       0.14720000        8 
O       2.40080000      -0.23840000      -0.20860000        8 
C      -0.77980000       0.01360000       0.05800000        6 
H      -0.75210000      -0.81880000       0.79280000        1 
H      -1.64980000       0.66450000       0.28170000        1 
H      -0.88910000      -0.39650000      -0.96830000        1 
H       1.27660000       0.00960000      -0.10280000        1 
