7
Properties=species:S:1:pos:R:3:Z:I:1 pbc="F F F"
O      -1.15590000       0.55250000      -0.41520000        8 
O       2.15570000       0.46620000       0.04530000        8 
C      -0.20750000      -0.40010000      -0.03190000        6 
H       0.91890000       0.09080000      -0.05820000        1 
H      -0.43110000      -0.77070000       0.99180000        1 
H      -0.24310000      -1.25480000      -0.73830000        1 
H      -1.03700000       1.31620000       0.20660000        1 
