8
Properties=species:S:1:pos:R:3:Z:I:1 pbc="F F F"
O      -0.13240000      -0.83760000       0.16440000        8 
O       2.06170000      -0.02830000       0.35230000        8 
C      -1.16580000       0.06510000      -0.09950000        6 
H      -0.91100000       0.68690000      -0.98430000        1 
H      -2.09740000      -0.49860000      -0.31230000        1 
H      -1.33410000       0.71920000       0.78260000        1 
H       0.76010000      -0.21990000       0.36680000        1 
H       2.81900000       0.11310000      -0.27000000        1 
