16
Properties=species:S:1:pos:R:3:Z:I:1 pbc="F F F"
O       1.73190000      -0.66160000      -0.45380000        8 
C      -1.05200000       0.49050000       1.20740000        6 
C      -1.66060000      -0.61800000      -0.97380000        6 
C       2.51440000       0.48450000      -0.30280000        6 
C      -0.62300000      -0.50460000       0.13620000        6 
H      -2.00030000       0.16140000       1.68330000        1 
H      -1.19170000       1.49720000       0.76020000        1 
H      -0.26320000       0.55470000       1.98540000        1 
H      -2.62740000      -0.98070000      -0.56390000        1 
H      -1.30220000      -1.33800000      -1.73860000        1 
H      -1.81090000       0.36930000      -1.45910000        1 
H       3.55700000       0.25950000      -0.60770000        1 
H       2.50790000       0.80730000       0.75950000        1 
H       2.11600000       1.29920000      -0.94330000        1 
H      -0.45000000      -1.50190000       0.59480000        1 
H       0.55430000      -0.31900000      -0.08380000        1 
