18
Properties=species:S:1:pos:R:3:Z:I:1 pbc="F F F"
O       0.07360000      -0.25450000      -0.60250000        8 
O       3.90500000      -0.55900000       1.05590000        8 
O       0.82700000       0.47160000       0.20230000        8 
C      -2.08490000       0.54330000       0.17140000        6 
C      -1.03140000       0.54630000      -0.94330000        6 
C      -2.64440000      -0.85530000       0.42290000        6 
C       3.25400000      -0.18440000      -0.12210000        6 
H      -2.91980000       1.21610000      -0.12120000        1 
H      -1.64150000       0.93790000       1.11100000        1 
H      -0.72020000       1.59310000      -1.16840000        1 
H      -1.48500000       0.14310000      -1.87390000        1 
H      -3.42300000      -0.80650000       1.21300000        1 
H      -3.10430000      -1.25980000      -0.50380000        1 
H      -1.83920000      -1.54050000       0.76310000        1 
H       2.00750000       0.20900000       0.14940000        1 
H       3.21570000      -1.05340000      -0.81070000        1 
H       3.80820000       0.64260000      -0.61600000        1 
H       3.80260000       0.21060000       1.67290000        1 
