15
Properties=species:S:1:pos:R:3:Z:I:1 pbc="F F F"
O      -1.53620000      -0.09760000      -1.71480000        8 
O      -1.18540000      -1.06410000      -0.88860000        8 
C       1.89730000      -1.01460000       1.37190000        6 
C      -2.36880000       0.75140000      -0.97450000        6 
C       1.72300000       0.24350000       0.57740000        6 
C       0.68060000       0.42130000      -0.23700000        6 
H       2.85880000      -1.49310000       1.09260000        1 
H       1.07290000      -1.73700000       1.19040000        1 
H       1.92050000      -0.76420000       2.45270000        1 
H      -3.27360000       0.20620000      -0.62570000        1 
H      -1.82030000       1.17820000      -0.10580000        1 
H      -2.69680000       1.58910000      -1.62370000        1 
H       2.46690000       1.02910000       0.66950000        1 
H      -0.32130000      -0.59230000      -0.38500000        1 
H       0.58230000       1.34410000      -0.79950000        1 
