13
Properties=species:S:1:pos:R:3:Z:I:1 pbc="F F F"
O      -1.92520000      -0.37790000       1.19010000        8 
O       1.89740000      -1.49710000      -1.18580000        8 
O      -0.73640000      -0.66710000       0.69730000        8 
C       2.41850000       0.49470000      -0.04090000        6 
C      -2.66710000       0.13260000       0.11720000        6 
C       1.49870000      -0.60490000      -0.45500000        6 
H       1.87560000       1.20360000       0.61770000        1 
H       3.28320000       0.07280000       0.51280000        1 
H       2.78290000       1.03760000      -0.93800000        1 
H      -3.68370000       0.39500000       0.47570000        1 
H      -2.76740000      -0.62910000      -0.68740000        1 
H      -2.19100000       1.05410000      -0.28510000        1 
H       0.21440000      -0.61440000      -0.01850000        1 
