10
Properties=species:S:1:pos:R:3:Z:I:1 pbc="F F F"
O      -1.25290000       0.19320000       1.09030000        8 
O       2.78550000      -1.00560000      -0.79130000        8 
O       0.02150000      -0.05860000       0.86120000        8 
C      -1.88800000       0.10060000      -0.15480000        6 
C       2.38760000      -0.09130000      -0.08930000        6 
H      -2.97050000       0.30460000      -0.02220000        1 
H      -1.77560000      -0.92250000      -0.57690000        1 
H      -1.47570000       0.85400000      -0.86200000        1 
H       1.12480000      -0.11600000       0.40540000        1 
H       3.04340000       0.74160000       0.13950000        1 
