20
Properties=species:S:1:pos:R:3:Z:I:1 pbc="F F F"
O       3.35680000      -0.33120000       0.05460000        8 
O       2.21540000       0.17400000      -0.37160000        8 
C      -0.98700000      -0.29580000      -0.81940000        6 
C      -2.44680000      -0.69020000      -0.55030000        6 
C      -0.08830000      -0.49170000       0.39960000        6 
C      -3.15620000       0.28320000       0.39040000        6 
C       4.18840000       0.76770000       0.30580000        6 
H      -0.93050000       0.76200000      -1.15580000        1 
H      -0.59570000      -0.93160000      -1.64240000        1 
H      -2.99220000      -0.69910000      -1.51880000        1 
H      -2.49410000      -1.71770000      -0.12840000        1 
H       1.21060000      -0.25180000       0.04110000        1 
H      -0.36210000       0.21710000       1.20840000        1 
H      -0.16500000      -1.53370000       0.77670000        1 
H      -3.08160000       1.32170000       0.00350000        1 
H      -2.71800000       0.23510000       1.40880000        1 
H      -4.23000000       0.00980000       0.46270000        1 
H       4.35860000       1.35120000      -0.62590000        1 
H       5.16980000       0.40010000       0.66960000        1 
H       3.74800000       1.42070000       1.09150000        1 
