11
Properties=species:S:1:pos:R:3:Z:I:1 pbc="F F F"
O       1.23060000       0.11010000       0.77210000        8 
O       0.31490000      -0.13420000      -0.14540000        8 
O      -3.79330000       0.25250000       1.38140000        8 
C       2.44840000       0.18150000       0.08350000        6 
C      -2.17760000      -0.27570000      -0.50580000        6 
C      -3.00620000      -0.00480000       0.46190000        6 
H       3.26090000       0.38670000       0.81050000        1 
H       2.42980000       1.00820000      -0.66060000        1 
H       2.66950000      -0.78420000      -0.42250000        1 
H      -0.82390000      -0.10730000      -0.32000000        1 
H      -2.55300000      -0.63270000      -1.45510000        1 
