16
Properties=species:S:1:pos:R:3:Z:I:1 pbc="F F F"
O      -2.56550000      -0.82900000       0.50250000        8 
O       3.74770000       0.52240000       0.30320000        8 
O      -1.52250000      -0.27910000      -0.08870000        8 
C       1.81520000      -0.66830000      -0.36200000        6 
C       0.85310000       0.51010000      -0.45500000        6 
C      -3.38280000       0.23710000       0.89960000        6 
C       3.23690000      -0.22030000      -0.52020000        6 
H       1.69200000      -1.17260000       0.62000000        1 
H       1.56970000      -1.39740000      -1.16320000        1 
H      -0.43180000       0.05330000      -0.33730000        1 
H       1.04840000       1.23640000       0.36270000        1 
H       0.96190000       1.02100000      -1.43570000        1 
H      -2.84610000       0.89600000       1.61750000        1 
H      -4.28230000      -0.16890000       1.40650000        1 
H      -3.71650000       0.82500000       0.01610000        1 
H       3.82250000      -0.56560000      -1.36590000        1 
