13
Properties=species:S:1:pos:R:3:Z:I:1 pbc="F F F"
O      -1.67450000      -0.20700000      -0.29270000        8 
C      -0.45090000      -0.85070000      -0.56210000        6 
C      -1.57290000       0.47360000       0.93670000        6 
C       1.89750000       0.32320000      -0.50190000        6 
H       0.50590000      -0.02010000      -0.60400000        1 
H      -0.51800000      -1.33790000      -1.55650000        1 
H      -0.24280000      -1.64440000       0.18970000        1 
H      -2.54680000       0.95870000       1.15310000        1 
H      -1.35550000      -0.22900000       1.77230000        1 
H      -0.80230000       1.27500000       0.89110000        1 
H       2.18390000       0.92850000      -1.38640000        1 
H       2.52570000      -0.59030000      -0.45970000        1 
H       2.05100000       0.92040000       0.42040000        1 
