11
Properties=species:S:1:pos:R:3:Z:I:1 pbc="F F F"
O      -0.32380000      -0.18500000      -0.72220000        8 
O       2.67520000      -0.59610000       0.33540000        8 
O       3.59780000      -1.52710000       0.45310000        8 
C       0.28740000       0.26910000       0.46410000        6 
C      -1.68770000       0.17030000      -0.70550000        6 
H       1.57740000      -0.07340000       0.43570000        1 
H      -0.16730000      -0.20840000       1.36060000        1 
H       0.23590000       1.37790000       0.54560000        1 
H      -2.15870000      -0.19140000      -1.64250000        1 
H      -2.21970000      -0.31110000       0.14530000        1 
H      -1.81650000       1.27520000      -0.66970000        1 
