13
Properties=species:S:1:pos:R:3:Z:I:1 pbc="F F F"
O      -1.60460000      -0.30550000       0.80120000        8 
O       1.63890000      -0.60480000      -0.31390000        8 
O       2.97090000       1.19840000      -0.79300000        8 
C      -0.78000000      -1.13350000       0.01390000        6 
C      -1.69810000       0.96230000       0.19320000        6 
C       2.77780000       0.16140000      -0.10760000        6 
H       0.32420000      -0.67290000      -0.09330000        1 
H      -0.68580000      -2.11870000       0.51500000        1 
H      -1.22740000      -1.30750000      -0.99010000        1 
H      -0.70350000       1.45860000       0.14050000        1 
H      -2.15260000       0.89230000      -0.82050000        1 
H      -2.35900000       1.60300000       0.81230000        1 
H       3.49920000      -0.13310000       0.64230000        1 
