14
Properties=species:S:1:pos:R:3:Z:I:1 pbc="F F F"
O       2.06930000      -0.31390000      -0.19330000        8 
O      -2.08010000      -0.41830000      -1.04200000        8 
O      -2.36730000       0.65300000       0.97760000        8 
O      -1.17370000      -1.26520000      -0.53660000        8 
C       1.17090000      -1.19040000       0.44520000        6 
C       1.55280000       0.99490000      -0.12860000        6 
C      -2.67290000       0.55280000      -0.24010000        6 
H      -0.04390000      -1.12270000      -0.10400000        1 
H       1.54030000      -2.22920000       0.32180000        1 
H       1.11510000      -0.97800000       1.53600000        1 
H       0.59610000       1.07840000      -0.69070000        1 
H       1.41600000       1.32630000       0.92530000        1 
H       2.27990000       1.68510000      -0.60360000        1 
H      -3.40250000       1.22710000      -0.66700000        1 
