15
Properties=species:S:1:pos:R:3:Z:I:1 pbc="F F F"
O      -1.97650000      -0.11920000      -0.83340000        8 
O      -1.94950000       0.62180000       1.35850000        8 
C       1.97250000       0.88300000      -0.09200000        6 
C      -1.03580000      -1.16250000      -0.61310000        6 
C       1.27990000      -0.34440000       0.47050000        6 
C      -2.39480000       0.73900000       0.18540000        6 
H       1.32510000       1.77330000       0.04990000        1 
H       2.16040000       0.74000000      -1.17640000        1 
H       2.93910000       1.04480000       0.43010000        1 
H       0.07940000      -0.66650000      -0.18050000        1 
H      -1.43700000      -1.88570000       0.12830000        1 
H      -0.84830000      -1.69330000      -1.56900000        1 
H       1.08040000      -0.20540000       1.55390000        1 
H       1.91790000      -1.24140000       0.32440000        1 
H      -3.11270000       1.51660000      -0.03660000        1 
