12
Properties=species:S:1:pos:R:3:Z:I:1 pbc="F F F"
O       1.45530000      -0.38340000       0.66800000        8 
O       1.52070000       1.48130000      -0.70070000        8 
C       0.46700000      -1.05630000      -0.10200000        6 
C       1.94270000       0.87870000       0.32260000        6 
C      -1.88500000       0.23820000      -0.03970000        6 
H      -0.58860000      -0.35650000      -0.15640000        1 
H       0.23100000      -2.02890000       0.37640000        1 
H       0.84690000      -1.24240000      -1.12890000        1 
H       2.69450000       1.34580000       0.94370000        1 
H      -2.49120000      -0.15270000       0.80320000        1 
H      -1.84710000       1.34560000       0.01450000        1 
H      -2.34620000      -0.06940000      -1.00070000        1 
