14
Properties=species:S:1:pos:R:3:Z:I:1 pbc="F F F"
O      -1.51190000       0.30970000       0.48460000        8 
O       2.59320000      -0.61330000      -0.78280000        8 
O      -3.79510000       0.05380000       0.20610000        8 
O       1.35740000      -0.99050000      -0.51760000        8 
C      -1.17040000      -0.83540000      -0.28710000        6 
C       2.79650000       0.56330000      -0.05030000        6 
C      -2.83450000       0.70520000       0.69700000        6 
H       0.15800000      -0.96460000      -0.31620000        1 
H      -1.61070000      -1.74710000       0.16960000        1 
H      -1.54350000      -0.71870000      -1.32670000        1 
H       3.82740000       0.92880000      -0.23610000        1 
H       2.08330000       1.35380000      -0.37280000        1 
H       2.68670000       0.37010000       1.03980000        1 
H      -3.03650000       1.58490000       1.29250000        1 
