11
Properties=species:S:1:pos:R:3:Z:I:1 pbc="F F F"
O      -1.28930000      -0.13040000      -0.61540000        8 
O      -1.00920000       0.65310000       1.54370000        8 
O       2.59010000       0.44160000       0.95910000        8 
C      -0.23760000      -1.08340000      -0.52820000        6 
C      -1.62930000       0.70810000       0.44800000        6 
C       1.79580000       0.55440000       0.04070000        6 
H       0.90450000      -0.47010000      -0.25780000        1 
H      -0.46210000      -1.82540000       0.26710000        1 
H      -0.14270000      -1.61260000      -1.49850000        1 
H      -2.43810000       1.41580000       0.32860000        1 
H       1.91790000       1.34890000      -0.68720000        1 
