10
Properties=species:S:1:pos:R:3:Z:I:1 pbc="F F F"
O      -1.06190000      -0.52810000      -0.56760000        8 
O      -1.30020000       0.98970000       1.16260000        8 
O       1.94900000       0.83890000      -0.05900000        8 
O       2.94570000       1.68230000      -0.22340000        8 
C       0.20190000      -1.00690000      -0.12570000        6 
C      -1.76440000       0.46790000       0.11360000        6 
H       1.07770000      -0.00040000      -0.07970000        1 
H       0.57060000      -1.77470000      -0.83640000        1 
H       0.10380000      -1.46480000       0.88140000        1 
H      -2.72230000       0.79610000      -0.26580000        1 
