13
Properties=species:S:1:pos:R:3:Z:I:1 pbc="F F F"
O      -1.35870000      -0.24230000      -0.60040000        8 
O      -0.78030000      -0.31320000       1.63930000        8 
C      -2.75780000      -0.34330000      -0.36360000        6 
C      -0.42060000      -0.23210000       0.43420000        6 
C       2.97430000       0.80550000       0.19300000        6 
C       2.22340000      -0.26220000      -0.06170000        6 
H      -2.98700000      -1.29470000       0.16170000        1 
H      -3.29390000      -0.33080000      -1.33470000        1 
H      -3.10300000       0.51640000       0.24900000        1 
H       0.80190000      -0.14050000       0.15780000        1 
H       3.51080000       1.30270000      -0.60870000        1 
H       3.05150000       1.18200000       1.20690000        1 
H       2.13910000      -0.64740000      -1.07270000        1 
