10
Properties=species:S:1:pos:R:3:Z:I:1 pbc="F F F"
O      -0.49940000       0.23000000       0.45580000        8 
O       0.15660000      -0.98070000      -1.40430000        8 
O       2.93980000       0.09670000       0.08280000        8 
O       3.81540000       0.86250000       0.69810000        8 
C      -1.89200000       0.09210000       0.20050000        6 
C       0.47540000      -0.32480000      -0.37660000        6 
H      -2.14550000       0.54520000      -0.78140000        1 
H      -2.46210000       0.61510000       0.99550000        1 
H      -2.17460000      -0.98200000       0.20230000        1 
H       1.78640000      -0.15410000      -0.07270000        1 
