9
Properties=species:S:1:pos:R:3:Z:I:1 pbc="F F F"
O       0.51660000      -0.31810000      -0.76180000        8 
O       1.38670000       0.39960000       1.25880000        8 
O      -1.74840000       1.69390000       0.45080000        8 
C      -0.79310000      -0.53640000      -0.25250000        6 
C       1.56290000       0.14890000       0.03640000        6 
H      -1.24940000       0.51350000       0.19480000        1 
H      -0.76640000      -1.30510000       0.54870000        1 
H      -1.44890000      -0.89390000      -1.07260000        1 
H       2.53990000       0.29760000      -0.40250000        1 
