12
Properties=species:S:1:pos:R:3:Z:I:1 pbc="F F F"
O      -1.03980000       0.53580000      -0.08470000        8 
O      -0.12740000      -1.43780000      -0.87750000        8 
C      -2.37890000       0.18700000      -0.41460000        6 
C       0.04130000      -0.31150000      -0.33790000        6 
C       2.34740000       0.12550000       0.84600000        6 
H      -3.05490000       1.01530000      -0.11890000        1 
H      -2.67760000      -0.73330000       0.13070000        1 
H      -2.47020000       0.02120000      -1.50900000        1 
H       1.23070000       0.06570000      -0.01380000        1 
H       2.91470000      -0.37400000       1.65820000        1 
H       2.57030000       1.21220000       0.85350000        1 
H       2.64440000      -0.30620000      -0.13190000        1 
