13
Properties=species:S:1:pos:R:3:Z:I:1 pbc="F F F"
O       1.44240000      -0.44210000       0.03020000        8 
O      -1.95850000       0.30100000      -0.44290000        8 
O       0.93460000       1.64760000      -0.82500000        8 
C       2.84410000      -0.20700000       0.09010000        6 
C      -2.99190000      -0.28690000       0.28450000        6 
C       0.53910000       0.51670000      -0.43400000        6 
H       3.23820000       0.00470000      -0.92650000        1 
H       3.34870000      -1.11020000       0.49030000        1 
H       3.05750000       0.65160000       0.76170000        1 
H      -3.42410000      -1.12570000      -0.29890000        1 
H      -3.77930000       0.46850000       0.48490000        1 
H      -2.59490000      -0.67140000       1.24650000        1 
H      -0.65590000       0.25320000      -0.46100000        1 
