15
Properties=species:S:1:pos:R:3:Z:I:1 pbc="F F F"
O       1.81570000      -0.16880000      -0.73620000        8 
O       1.25240000      -0.42020000       1.49440000        8 
C      -2.89640000       0.41410000       0.58850000        6 
C       3.14270000      -0.65610000      -0.57780000        6 
C      -1.62770000       0.44450000      -0.24340000        6 
C       0.91830000      -0.07320000       0.32990000        6 
H      -2.79900000       1.11740000       1.44140000        1 
H      -3.05970000      -0.61140000       0.98050000        1 
H      -3.76540000       0.71150000      -0.03550000        1 
H       3.12200000      -1.70130000      -0.20250000        1 
H       3.65790000      -0.63710000      -1.56010000        1 
H       3.70190000      -0.01270000       0.13420000        1 
H      -1.45260000       1.46970000      -0.63230000        1 
H      -1.71400000      -0.26360000      -1.09440000        1 
H      -0.29590000       0.38700000       0.11340000        1 
