9
Properties=species:S:1:pos:R:3:Z:I:1 pbc="F F F"
O      -0.13000000      -0.40980000      -0.50190000        8 
O       0.64620000       0.69290000       1.37890000        8 
O       3.13430000      -1.10610000       0.50820000        8 
C      -1.34540000       0.32570000      -0.57600000        6 
C       0.82470000      -0.18480000       0.49240000        6 
H      -1.12840000       1.40680000      -0.70850000        1 
H      -1.93540000      -0.03150000      -1.44490000        1 
H      -1.93960000       0.17280000       0.34980000        1 
H       1.87350000      -0.86600000       0.50210000        1 
