9
Properties=species:S:1:pos:R:3:Z:I:1 pbc="F F F"
O      -0.66800000      -0.24380000      -0.94760000        8 
O       0.03460000      -1.22600000      -0.41540000        8 
O       2.17930000      -0.44250000       0.04860000        8 
O       2.96660000       0.55040000       0.40380000        8 
C      -1.28660000       0.41090000       0.12650000        6 
H      -0.52530000       0.83210000       0.81970000        1 
H      -1.89890000       1.24800000      -0.26720000        1 
H      -1.95920000      -0.28530000       0.67440000        1 
H       1.15760000      -0.84390000      -0.44280000        1 
