12
Properties=species:S:1:pos:R:3:Z:I:1 pbc="F F F"
O       2.17190000      -0.12180000      -0.65990000        8 
O      -1.94880000      -1.33060000       0.93940000        8 
O      -2.25230000       1.67450000      -0.55100000        8 
C       0.17380000      -0.32570000       0.66210000        6 
C       0.77200000      -0.11010000      -0.72790000        6 
C      -1.32270000      -0.34250000       0.59090000        6 
H       0.54850000      -1.28540000       1.08130000        1 
H       0.48850000       0.49920000       1.33620000        1 
H       0.44580000      -0.93080000      -1.40250000        1 
H       0.41500000       0.85350000      -1.15930000        1 
H      -1.93690000       0.66410000       0.17420000        1 
H       2.44540000       0.75550000      -0.28360000        1 
