15
Properties=species:S:1:pos:R:3:Z:I:1 pbc="F F F"
O       2.38580000      -1.19790000       0.52230000        8 
O       0.06950000      -1.35890000      -1.23770000        8 
C       0.72610000       0.51050000       0.09340000        6 
C       2.18040000       0.05210000      -0.08000000        6 
C      -0.27490000      -0.38000000      -0.59310000        6 
C      -2.81950000       0.17310000       0.00860000        6 
H       0.62180000       1.53520000      -0.32170000        1 
H       0.48060000       0.55510000       1.17580000        1 
H       2.86470000       0.80900000       0.36630000        1 
H       2.42560000      -0.02120000      -1.16110000        1 
H      -1.52900000      -0.09570000      -0.49970000        1 
H      -3.12670000      -0.89170000       0.05960000        1 
H      -3.37380000       0.67920000      -0.80840000        1 
H      -3.04770000       0.67050000       0.97360000        1 
H       2.41700000      -1.03950000       1.50200000        1 
