10
Properties=species:S:1:pos:R:3:Z:I:1 pbc="F F F"
O      -2.12950000       0.39840000       0.02550000        8 
O       0.07920000       1.84160000       0.07990000        8 
O       2.62320000      -0.12650000       0.43470000        8 
C      -0.92110000      -0.30590000      -0.06140000        6 
C       0.24410000       0.63560000      -0.01870000        6 
H      -0.83640000      -1.01630000       0.78980000        1 
H      -0.88410000      -0.87530000      -1.01580000        1 
H       1.32600000       0.20800000      -0.08070000        1 
H      -2.84840000      -0.28490000      -0.00880000        1 
H       3.34700000      -0.47470000      -0.14450000        1 
