13
Properties=species:S:1:pos:R:3:Z:I:1 pbc="F F F"
O      -1.04390000       1.50260000       0.00560000        8 
O      -0.72190000      -1.87760000      -0.92760000        8 
O       2.17650000      -0.28240000      -1.80850000        8 
O       2.79270000       0.83480000      -2.13100000        8 
C       0.16410000      -0.44210000       0.73180000        6 
C      -1.05750000       0.45380000       0.93450000        6 
C       0.15690000      -1.08760000      -0.62130000        6 
H       0.17870000      -1.23240000       1.51280000        1 
H       1.08760000       0.16630000       0.83720000        1 
H      -1.98940000      -0.14500000       0.82160000        1 
H      -1.02880000       0.87010000       1.96610000        1 
H       1.14240000      -0.80180000      -1.50860000        1 
H      -1.85730000       2.04120000       0.18740000        1 
