12
Properties=species:S:1:pos:R:3:Z:I:1 pbc="F F F"
O      -1.34150000       0.98900000       0.78320000        8 
O       1.97600000      -0.01580000       1.20900000        8 
C       0.07490000      -0.82900000       0.06030000        6 
C      -1.12310000       0.06910000      -0.25290000        6 
C       1.33370000      -0.02260000       0.17110000        6 
H       0.19980000      -1.56870000      -0.75850000        1 
H      -0.11320000      -1.38640000       1.00420000        1 
H      -0.93750000       0.62630000      -1.19630000        1 
H      -2.03000000      -0.55850000      -0.40730000        1 
H       1.74980000       0.67850000      -0.85350000        1 
H      -1.75560000       0.48240000       1.53000000        1 
H       1.96660000       1.53580000      -1.28940000        1 
