17
Properties=species:S:1:pos:R:3:Z:I:1 pbc="F F F"
O       2.76600000       1.35130000       0.71490000        8 
O      -2.84180000      -0.49800000      -0.85900000        8 
O       0.45980000      -2.60000000       0.44110000        8 
O      -1.54500000      -0.60400000      -1.07500000        8 
C       1.84500000      -0.74170000      -0.02820000        6 
C       1.57190000       0.62720000       0.59430000        6 
C      -3.00480000       0.65940000      -0.08680000        6 
C       0.57540000      -1.52960000      -0.13400000        6 
H       2.26790000      -0.61110000      -1.04690000        1 
H       2.58640000      -1.29020000       0.59380000        1 
H       1.13830000       0.49270000       1.60860000        1 
H       0.83740000       1.19490000      -0.02240000        1 
H      -4.08430000       0.79990000       0.12690000        1 
H      -2.63990000       1.55350000      -0.63920000        1 
H      -2.46750000       0.56260000       0.88240000        1 
H      -0.45390000      -1.05150000      -0.87710000        1 
H       2.98910000       1.68460000      -0.19340000        1 
