9
Properties=species:S:1:pos:R:3:Z:I:1 pbc="F F F"
O      -1.29250000      -0.74040000       0.56940000        8 
O       1.10380000       1.53310000       0.66370000        8 
C      -0.79250000       0.36520000      -0.13040000        6 
C       0.67250000       0.51940000       0.13800000        6 
H      -0.95820000       0.24340000      -1.22420000        1 
H      -1.33930000       1.27410000       0.20040000        1 
H       1.49830000      -0.44050000      -0.19540000        1 
H      -1.00320000      -1.54860000       0.07000000        1 
H       2.11120000      -1.20570000      -0.09150000        1 
