7
Properties=species:S:1:pos:R:3:Z:I:1 pbc="F F F"
O      -0.25490000       0.70460000      -0.25360000        8 
O      -2.52790000       0.48650000      -0.05120000        8 
O       1.99990000       0.04610000      -0.36650000        8 
C      -1.38270000       0.02030000       0.18030000        6 
H      -1.27890000      -0.91320000       0.71720000        1 
H       0.75890000       0.29760000      -0.05190000        1 
H       2.68550000      -0.64200000      -0.17430000        1 
