8
Properties=species:S:1:pos:R:3:Z:I:1 pbc="F F F"
O      -0.56340000      -0.76730000      -0.19230000        8 
O      -2.82590000      -0.56610000      -0.50120000        8 
O       2.40540000       0.06110000       1.16640000        8 
C      -1.73990000      -0.03090000      -0.15990000        6 
C       1.76700000       0.00560000       0.12890000        6 
H      -1.72400000       1.00270000       0.15840000        1 
H       0.55320000      -0.22110000       0.15730000        1 
H       2.12740000       0.51590000      -0.75750000        1 
