27
Properties=species:S:1:pos:R:3:Z:I:1 pbc="F F F"
O      -3.59170000       2.08710000       0.74790000        8 
O      -4.85290000       1.73320000       0.61590000        8 
C      -1.00230000      -0.10740000       0.10730000        6 
C       0.01150000      -1.13470000       0.66600000        6 
C       1.19470000      -1.44570000      -0.26600000        6 
C      -1.69350000      -0.60300000      -1.16900000        6 
C       4.12240000       1.09180000      -0.32250000        6 
C       2.04570000      -0.22930000      -0.52480000        6 
C       3.29320000      -0.12380000      -0.04600000        6 
C      -2.06220000       0.20740000       1.16420000        6 
H      -0.48110000       0.84580000      -0.12320000        1 
H       0.41970000      -0.75810000       1.63030000        1 
H      -0.51820000      -2.08760000       0.88730000        1 
H       0.83790000      -1.85570000      -1.23280000        1 
H       1.80220000      -2.24760000       0.20890000        1 
H      -2.14520000      -1.60550000      -1.00840000        1 
H      -2.49510000       0.10560000      -1.46940000        1 
H      -0.97020000      -0.65810000      -2.00850000        1 
H       4.26640000       1.21140000      -1.41710000        1 
H       3.61940000       1.99420000       0.08500000        1 
H       5.11610000       0.98570000       0.16080000        1 
H       1.63500000       0.57500000      -1.12860000        1 
H       3.72010000      -0.92100000       0.55630000        1 
H      -1.60160000       0.68310000       2.05620000        1 
H      -2.61200000      -0.70940000       1.46830000        1 
H      -3.00710000       1.10150000       0.70770000        1 
H      -5.05150000       1.86500000      -0.34590000        1 
