27
Properties=species:S:1:pos:R:3:Z:I:1 pbc="F F F"
O       4.49610000       0.20010000       0.64570000        8 
O       4.68780000       1.30540000      -0.04340000        8 
C      -2.55650000       0.69960000       0.53470000        6 
C       0.98860000      -0.36360000      -0.63750000        6 
C       1.98060000      -1.30870000       0.04440000        6 
C      -3.37320000      -0.59780000       0.49580000        6 
C      -3.38930000       1.86800000      -0.00390000        6 
C      -1.27950000       0.55090000      -0.26060000        6 
C      -0.27810000      -0.23380000       0.16390000        6 
C       3.26350000      -1.41710000      -0.76850000        6 
H      -2.29620000       0.92730000       1.59240000        1 
H       1.45240000       0.64130000      -0.74870000        1 
H       0.73830000      -0.75510000      -1.64810000        1 
H       2.23140000      -0.91990000       1.05530000        1 
H       1.53000000      -2.31980000       0.15150000        1 
H      -2.79560000      -1.43380000       0.94400000        1 
H      -4.31000000      -0.47830000       1.08080000        1 
H      -3.63500000      -0.86380000      -0.55110000        1 
H      -2.80120000       2.80960000       0.04400000        1 
H      -4.30500000       2.00140000       0.61100000        1 
H      -3.68920000       1.68460000      -1.05850000        1 
H      -1.16010000       1.10680000      -1.18810000        1 
H      -0.38250000      -0.77880000       1.09920000        1 
H       3.05670000      -1.86800000      -1.76250000        1 
H       4.00150000      -2.04800000      -0.22970000        1 
H       3.71730000      -0.38730000       0.04310000        1 
H       4.10740000       1.97850000       0.39480000        1 
