26
Properties=species:S:1:pos:R:3:Z:I:1 pbc="F F F"
O       1.62700000       0.70060000      -0.72700000        8 
O      -1.89360000       1.74420000      -1.23310000        8 
O      -2.40280000       2.82600000      -0.68200000        8 
O       2.99710000      -0.79390000       0.39020000        8 
C      -1.48330000      -0.90170000       0.83380000        6 
C      -0.18420000      -0.07710000       0.69920000        6 
C       0.46500000      -0.12610000      -0.69350000        6 
C      -1.26410000      -2.39950000       0.58290000        6 
C       3.99100000       1.29310000      -0.19710000        6 
C       2.84970000       0.33450000      -0.15360000        6 
C      -2.60260000      -0.35140000      -0.05350000        6 
H      -1.82230000      -0.79090000       1.88760000        1 
H      -0.40620000       0.98350000       0.95020000        1 
H       0.54590000      -0.44180000       1.45350000        1 
H      -0.24680000       0.26020000      -1.45120000        1 
H       0.73870000      -1.16550000      -0.97320000        1 
H      -2.17860000      -2.96550000       0.86160000        1 
H      -1.04490000      -2.59990000      -0.48680000        1 
H      -0.42220000      -2.77450000       1.20290000        1 
H       3.70810000       2.22830000       0.32930000        1 
H       4.88750000       0.85860000       0.29420000        1 
H       4.23610000       1.52860000      -1.25350000        1 
H      -3.57910000      -0.79590000       0.23440000        1 
H      -2.41320000      -0.56190000      -1.12710000        1 
H      -2.37900000       0.87310000      -0.66720000        1 
H      -1.72340000       3.11480000      -0.02100000        1 
