30
Properties=species:S:1:pos:R:3:Z:I:1 pbc="F F F"
O       3.38770000       1.27400000       1.05280000        8 
O       3.06650000       1.06740000       2.31280000        8 
C      -0.40810000       0.30890000      -1.16180000        6 
C       0.74910000      -0.26290000      -0.31060000        6 
C       2.06230000      -0.34510000      -1.10060000        6 
C      -0.99560000      -0.72580000      -2.13370000        6 
C      -2.05110000      -0.95950000       1.17920000        6 
C      -3.29900000       1.28470000       1.32930000        6 
C      -2.23630000       0.44510000       0.66370000        6 
C      -1.48930000       0.98720000      -0.33150000        6 
C       3.18500000      -0.87760000      -0.22020000        6 
H       0.01560000       1.11830000      -1.79850000        1 
H       0.91370000       0.38990000       0.57560000        1 
H       0.49370000      -1.28200000       0.04860000        1 
H       2.34740000       0.66660000      -1.46140000        1 
H       1.94340000      -1.01670000      -1.97750000        1 
H      -1.23690000      -1.68040000      -1.62820000        1 
H      -1.91530000      -0.32750000      -2.61340000        1 
H      -0.26420000      -0.94620000      -2.93920000        1 
H      -2.81450000      -1.19460000       1.95110000        1 
H      -1.06150000      -1.06320000       1.66600000        1 
H      -2.17280000      -1.70220000       0.36960000        1 
H      -3.07220000       1.37840000       2.41210000        1 
H      -4.28730000       0.79320000       1.20960000        1 
H      -3.36690000       2.30690000       0.89920000        1 
H      -1.68000000       2.02400000      -0.59870000        1 
H       2.96570000      -1.91770000       0.10250000        1 
H       4.14410000      -0.86520000      -0.77950000        1 
H       3.15400000       0.28250000       0.52640000        1 
H       3.92280000       0.83920000       2.75610000        1 
