27
Properties=species:S:1:pos:R:3:Z:I:1 pbc="F F F"
O       5.26230000       0.46900000       0.06130000        8 
O       5.05720000       1.12590000       1.18370000        8 
C      -2.78170000      -0.01430000       0.13160000        6 
C      -1.45720000       0.33190000      -0.58110000        6 
C       2.05990000      -1.22070000      -0.14770000        6 
C      -3.95730000       0.67850000      -0.56880000        6 
C      -2.74440000       0.39090000       1.61330000        6 
C      -0.31470000      -0.53650000      -0.12120000        6 
C       0.92170000      -0.35090000      -0.60190000        6 
C       3.35750000      -0.81640000      -0.83250000        6 
H      -2.95140000      -1.11260000       0.06890000        1 
H      -1.20450000       1.40100000      -0.40500000        1 
H      -1.57720000       0.18500000      -1.67720000        1 
H       2.18590000      -1.11590000       0.95130000        1 
H       1.83650000      -2.28350000      -0.38450000        1 
H      -4.02250000       0.34800000      -1.62740000        1 
H      -4.91330000       0.41370000      -0.06830000        1 
H      -3.83280000       1.78260000      -0.54450000        1 
H      -1.93170000      -0.14450000       2.14690000        1 
H      -3.70430000       0.12680000       2.10610000        1 
H      -2.57930000       1.48500000       1.71660000        1 
H      -0.49260000      -1.33030000       0.60010000        1 
H       1.10110000       0.43940000      -1.32780000        1 
H       3.28260000      -0.97520000      -1.92970000        1 
H       4.20020000      -1.42020000      -0.43460000        1 
H       4.22920000       0.06960000      -0.23520000        1 
H       4.97070000       2.07370000       0.90780000        1 
