30
Properties=species:S:1:pos:R:3:Z:I:1 pbc="F F F"
O      -0.71510000      -0.01220000      -0.62410000        8 
O       2.78220000      -3.13970000       1.02070000        8 
O       3.87580000      -3.49710000       0.38070000        8 
C       0.33350000       0.90190000      -0.32920000        6 
C      -1.40380000      -0.44450000       0.53980000        6 
C       0.28620000       2.05390000      -1.35130000        6 
C       1.69680000       0.18840000      -0.44670000        6 
C      -2.55310000       0.51440000       0.86840000        6 
C      -1.95620000      -1.84560000       0.27810000        6 
C      -0.99650000       2.87510000      -1.24440000        6 
C       1.90960000      -0.86820000       0.63080000        6 
H      -0.73700000      -0.52190000       1.42940000        1 
H       0.25620000       1.36060000       0.68650000        1 
H       1.14760000       2.73760000      -1.18480000        1 
H       0.36580000       1.64560000      -2.38280000        1 
H       1.78750000      -0.29460000      -1.44390000        1 
H       2.51770000       0.93160000      -0.35100000        1 
H      -3.22970000       0.62450000      -0.00590000        1 
H      -2.15420000       1.51200000       1.14330000        1 
H      -3.13860000       0.13310000       1.73220000        1 
H      -1.12370000      -2.54090000       0.04060000        1 
H      -2.66130000      -1.83180000      -0.58070000        1 
H      -2.48550000      -2.22800000       1.17710000        1 
H      -1.09780000       3.30360000      -0.22490000        1 
H      -0.96230000       3.71060000      -1.97490000        1 
H      -1.88160000       2.24650000      -1.47550000        1 
H       1.79600000      -0.43260000       1.64620000        1 
H       1.22290000      -1.72850000       0.49230000        1 
H       2.50150000      -2.12260000       0.57190000        1 
H       4.61710000      -3.23110000       0.98210000        1 
