21
Properties=species:S:1:pos:R:3:Z:I:1 pbc="F F F"
O       2.91790000       0.06040000       0.78700000        8 
O       3.60820000       1.11350000       0.40210000        8 
C      -0.25780000      -0.64640000      -0.57770000        6 
C      -0.64720000      -0.85470000       0.87860000        6 
C      -0.71300000       0.76940000      -0.90000000        6 
C      -1.91090000      -0.02810000       1.08360000        6 
C      -1.95270000       1.00240000      -0.04500000        6 
C       1.24090000      -0.83260000      -0.80310000        6 
H      -0.82010000      -1.36660000      -1.21450000        1 
H       0.15190000      -0.47320000       1.55390000        1 
H      -0.82650000      -1.92990000       1.09740000        1 
H      -0.94040000       0.88240000      -1.98250000        1 
H       0.07180000       1.50570000      -0.61330000        1 
H      -1.89530000       0.47050000       2.07740000        1 
H      -2.80590000      -0.68640000       1.02770000        1 
H      -2.86830000       0.85360000      -0.65900000        1 
H      -1.95880000       2.03750000       0.36130000        1 
H       1.49480000      -0.64730000      -1.86840000        1 
H       1.54420000      -1.86640000      -0.53330000        1 
H       2.14750000      -0.10300000      -0.04640000        1 
H       4.41970000       0.73910000      -0.02590000        1 
