29
Properties=species:S:1:pos:R:3:Z:I:1 pbc="F F F"
O       3.57320000      -0.93010000       0.33160000        8 
O       4.31350000       0.15330000       0.43920000        8 
C       0.38390000      -0.30710000      -0.58280000        6 
C       0.04320000       1.16870000      -0.93090000        6 
C      -1.14750000      -0.54380000      -0.58920000        6 
C      -1.28970000       0.67070000      -1.52670000        6 
C      -0.34530000       1.96380000       0.36340000        6 
C       1.10300000      -1.03370000      -1.74320000        6 
C      -2.68420000      -0.93810000       1.53580000        6 
C      -1.73010000      -0.08510000       0.75570000        6 
C      -1.34660000       1.14590000       1.20390000        6 
C       1.16070000      -0.61500000       0.72210000        6 
H       0.72350000       1.68900000      -1.63920000        1 
H      -1.50630000      -1.51590000      -0.99150000        1 
H      -2.17860000       1.32120000      -1.35250000        1 
H      -1.20830000       0.39790000      -2.60130000        1 
H      -0.81380000       2.92960000       0.07800000        1 
H       0.56250000       2.18870000       0.96130000        1 
H       0.62840000      -0.85680000      -2.72950000        1 
H       1.10380000      -2.12970000      -1.56080000        1 
H       2.15600000      -0.68550000      -1.80880000        1 
H      -2.25520000      -1.16070000       2.53530000        1 
H      -2.87370000      -1.89630000       1.00860000        1 
H      -3.64890000      -0.40310000       1.66120000        1 
H      -1.72260000       1.54270000       2.14190000        1 
H       1.10330000      -1.69890000       0.95750000        1 
H       0.87140000      -0.03920000       1.61990000        1 
H       2.49280000      -0.54600000       0.33680000        1 
H       4.53160000       0.21360000       1.40400000        1 
