18
Properties=species:S:1:pos:R:3:Z:I:1 pbc="F F F"
O       2.97220000      -0.09810000      -0.62160000        8 
O       3.55870000       0.71190000       0.23440000        8 
O      -0.36890000      -0.72700000      -2.22010000        8 
C      -1.86880000       0.84620000       0.63720000        6 
C      -1.87830000       0.63150000      -0.88620000        6 
C      -0.10890000      -0.62510000       0.16180000        6 
C      -0.71990000       0.02260000       1.13750000        6 
C      -0.73810000      -0.29420000      -1.09650000        6 
C       1.12000000      -1.45970000       0.33110000        6 
H      -1.70330000       1.91660000       0.88490000        1 
H      -2.81720000       0.49240000       1.09530000        1 
H      -1.70510000       1.58660000      -1.42720000        1 
H      -2.82680000       0.15890000      -1.22030000        1 
H      -0.41680000      -0.02490000       2.17590000        1 
H       1.19660000      -2.20470000      -0.48840000        1 
H       1.09370000      -1.99730000       1.30270000        1 
H       2.00830000      -0.54520000      -0.01460000        1 
H       3.20260000       1.60970000       0.01400000        1 
