29
Properties=species:S:1:pos:R:3:Z:I:1 pbc="F F F"
O       4.40110000      -0.14390000      -0.94840000        8 
O       5.41650000       0.69120000      -0.88120000        8 
C       0.57890000       0.27810000       0.80400000        6 
C       0.04170000      -0.02550000      -0.60000000        6 
C      -3.50300000       1.50490000      -1.00000000        6 
C      -2.42480000       0.52630000      -0.60850000        6 
C       1.76550000      -0.59440000       1.13360000        6 
C      -1.15040000       0.83890000      -0.91390000        6 
C      -2.76720000      -0.72750000       0.11410000        6 
C       3.13060000       0.01160000       1.23920000        6 
C       1.61070000      -1.90370000       1.36750000        6 
C      -3.91840000      -1.37440000      -0.06460000        6 
H      -0.21240000      -1.10120000      -0.71360000        1 
H       0.83910000       0.19760000      -1.34210000        1 
H       0.87940000       1.34840000       0.84780000        1 
H      -0.21180000       0.12580000       1.56980000        1 
H      -3.59910000       1.53410000      -2.10590000        1 
H      -4.48610000       1.24210000      -0.55910000        1 
H      -3.24210000       2.52050000      -0.63270000        1 
H      -0.95010000       1.76390000      -1.44380000        1 
H      -2.04530000      -1.17170000       0.78650000        1 
H       3.40310000       0.50230000       0.28140000        1 
H       3.15370000       0.75470000       2.06350000        1 
H      -4.66610000      -1.02860000      -0.76550000        1 
H      -4.10900000      -2.29220000       0.47650000        1 
H       2.46340000      -2.52870000       1.61620000        1 
H       0.62910000      -2.36560000       1.31780000        1 
H       3.91750000      -0.13470000       0.17570000        1 
H       5.05560000       1.55160000      -1.21430000        1 
