27
Properties=species:S:1:pos:R:3:Z:I:1 pbc="F F F"
O       1.81360000       0.60180000       1.82890000        8 
O       2.49290000       1.66930000       1.46570000        8 
C      -1.13600000       1.36510000       0.08330000        6 
C      -2.42140000       0.56130000       0.32910000        6 
C       0.12620000       0.52130000       0.31150000        6 
C      -3.65980000       1.42830000       0.12240000        6 
C       1.55120000      -2.34800000      -1.90510000        6 
C       1.38110000      -1.35840000      -0.78230000        6 
C       0.33480000      -0.50670000      -0.77680000        6 
C       2.41050000      -1.33300000       0.31530000        6 
H      -2.47220000      -0.30270000      -0.36750000        1 
H      -2.42610000       0.17200000       1.37050000        1 
H      -1.13200000       1.77480000      -0.95120000        1 
H      -1.11120000       2.22560000       0.78750000        1 
H       1.00490000       1.20200000       0.32840000        1 
H       0.06140000       0.01760000       1.30050000        1 
H      -3.69260000       1.81130000      -0.91990000        1 
H      -3.65330000       2.28570000       0.82860000        1 
H      -4.57240000       0.82330000       0.30720000        1 
H       1.55880000      -3.37810000      -1.49130000        1 
H       2.51560000      -2.15970000      -2.42190000        1 
H       0.73340000      -2.27800000      -2.65400000        1 
H      -0.38140000      -0.54740000      -1.59360000        1 
H       3.26550000      -2.00300000       0.08370000        1 
H       1.95170000      -1.65280000       1.27440000        1 
H       2.17870000      -0.27510000       1.05730000        1 
H       3.27820000       1.68380000       2.06960000        1 
