27
Properties=species:S:1:pos:R:3:Z:I:1 pbc="F F F"
O       4.81360000      -1.09340000      -0.38750000        8 
O       5.64570000      -0.09710000      -0.60660000        8 
C      -2.55730000       0.65150000      -0.12640000        6 
C      -1.19560000       0.86980000       0.57500000        6 
C      -0.27960000      -0.36440000       0.59400000        6 
C      -2.40560000       0.34980000      -1.62380000        6 
C      -3.40870000      -0.42180000       0.56520000        6 
C       1.01530000      -0.03400000       1.29620000        6 
C       2.22310000      -0.01700000       0.70510000        6 
C       2.45030000      -0.31440000      -0.74580000        6 
H      -3.11410000       1.61160000      -0.04380000        1 
H      -1.38520000       1.19580000       1.62200000        1 
H      -0.66420000       1.70510000       0.06690000        1 
H      -0.10320000      -0.71930000      -0.44000000        1 
H      -0.76420000      -1.18980000       1.15530000        1 
H      -1.74980000       1.10580000      -2.10580000        1 
H      -3.39970000       0.38980000      -2.11810000        1 
H      -1.97780000      -0.66090000      -1.78990000        1 
H      -4.43600000      -0.41820000       0.14250000        1 
H      -2.97620000      -1.43360000       0.41710000        1 
H      -3.48210000      -0.21360000       1.65380000        1 
H       0.96180000       0.21400000       2.35260000        1 
H       3.09100000       0.23930000       1.30410000        1 
H       1.88800000       0.39990000      -1.38370000        1 
H       2.16280000      -1.36080000      -0.98040000        1 
H       3.70400000      -0.57740000      -0.39400000        1 
H       5.94370000       0.18330000       0.29570000        1 
