28
Properties=species:S:1:pos:R:3:Z:I:1 pbc="F F F"
C      -1.31780000       0.26930000      -0.02230000        6 
C       0.09190000      -0.04820000       0.52740000        6 
C       1.19840000       0.91020000       0.04400000        6 
C       2.56660000       0.55930000       0.64890000        6 
C      -1.83530000       1.63820000       0.43750000        6 
C      -1.39700000       0.13660000      -1.54860000        6 
C       3.08390000      -0.77260000       0.17280000        6 
C       3.45730000      -0.97230000      -1.09460000        6 
C      -3.02700000      -1.55610000       0.93050000        6 
H      -2.08500000      -0.58710000       0.45600000        1 
H       1.27120000       0.89330000      -1.06350000        1 
H       0.95130000       1.94730000       0.35310000        1 
H       0.35280000      -1.08860000       0.23520000        1 
H       0.05150000      -0.02490000       1.63840000        1 
H       2.48550000       0.54300000       1.75740000        1 
H       3.30080000       1.35040000       0.38230000        1 
H      -2.91080000       1.73790000       0.17850000        1 
H      -1.73500000       1.73750000       1.53900000        1 
H      -1.28110000       2.46430000      -0.05530000        1 
H      -0.83820000       0.95260000      -2.05300000        1 
H      -0.98370000      -0.84220000      -1.87200000        1 
H      -2.45760000       0.18810000      -1.87430000        1 
H       3.17510000      -1.58670000       0.88570000        1 
H       3.39630000      -0.17460000      -1.82850000        1 
H       3.83380000      -1.94220000      -1.40280000        1 
H      -2.90720000      -1.80700000      -0.14350000        1 
H      -2.36000000      -2.20190000       1.53770000        1 
H      -4.08080000      -1.72390000       1.23410000        1 
