35
Properties=species:S:1:pos:R:3:Z:I:1 pbc="F F F"
O      -1.71830000       0.16040000       0.43970000        8 
C      -0.63510000      -0.71740000       0.65620000        6 
C      -2.79930000      -0.59460000      -0.06510000        6 
C       0.67060000      -0.03950000       0.20760000        6 
C      -0.90900000      -2.01930000      -0.08450000        6 
C      -2.40360000      -2.06580000      -0.12440000        6 
C       3.21970000      -0.22730000       0.09000000        6 
C       1.91320000      -0.85980000       0.59510000        6 
C       3.60040000       1.04350000       0.86380000        6 
C      -3.18330000      -0.05560000      -1.44320000        6 
C       4.96740000       1.56300000       0.42740000        6 
C      -4.12750000       2.26480000      -0.72180000        6 
H      -0.57770000      -0.92580000       1.74880000        1 
H      -3.67210000      -0.47170000       0.61260000        1 
H       2.84990000       1.84120000       0.68220000        1 
H       3.63090000       0.82700000       1.95380000        1 
H       4.03210000      -0.97720000       0.21210000        1 
H       3.13330000       0.00090000      -0.99510000        1 
H       1.95650000      -0.98410000       1.69930000        1 
H       1.83450000      -1.87330000       0.14630000        1 
H       0.64910000       0.12400000      -0.89250000        1 
H       0.72280000       0.95570000       0.69720000        1 
H      -0.51280000      -1.98460000      -1.12410000        1 
H      -0.48670000      -2.89720000       0.45150000        1 
H      -2.77390000      -2.59000000      -1.03320000        1 
H      -2.78430000      -2.59290000       0.77890000        1 
H       4.96030000       1.80330000      -0.65720000        1 
H       5.21280000       2.48580000       0.99420000        1 
H       5.75230000       0.80340000       0.63000000        1 
H      -3.49250000       1.20480000      -1.34540000        1 
H      -4.06300000      -0.60550000      -1.84030000        1 
H      -2.33420000      -0.16150000      -2.15220000        1 
H      -4.97670000       2.87900000      -1.08580000        1 
H      -3.24580000       2.91640000      -0.55200000        1 
H      -4.41030000       1.76980000       0.22990000        1 
