29
Properties=species:S:1:pos:R:3:Z:I:1 pbc="F F F"
O       2.53840000       1.30960000       0.51000000        8 
C      -1.26020000      -0.41630000      -1.05110000        6 
C       1.03640000      -0.49660000       0.16050000        6 
C      -0.18970000       0.36420000      -0.25180000        6 
C      -1.91650000      -1.52400000      -0.21560000        6 
C      -2.33490000       0.54940000      -1.56810000        6 
C       0.95910000      -0.92040000       1.63430000        6 
C       3.35130000      -0.27500000      -1.03250000        6 
C       2.32700000       0.25750000      -0.07620000        6 
C      -0.91360000       1.97420000       1.66350000        6 
H      -0.77610000      -0.88470000      -1.93680000        1 
H       1.06320000      -1.42350000      -0.45490000        1 
H      -0.72640000       0.89980000       0.77040000        1 
H       0.15240000       1.20610000      -0.89570000        1 
H      -1.18440000      -2.32640000       0.00940000        1 
H      -2.31910000      -1.11330000       0.73510000        1 
H      -2.74970000      -1.99220000      -0.78210000        1 
H      -2.85480000       1.04670000      -0.72100000        1 
H      -3.08500000       0.00120000      -2.17740000        1 
H      -1.87570000       1.32770000      -2.21430000        1 
H       1.82760000      -1.56510000       1.88930000        1 
H       0.96850000      -0.03200000       2.30190000        1 
H       0.03460000      -1.49770000       1.83480000        1 
H       3.69150000      -1.27590000      -0.69410000        1 
H       4.22960000       0.40320000      -1.08600000        1 
H       2.90430000      -0.36300000      -2.04480000        1 
H      -0.76100000       1.62180000       2.70430000        1 
H      -1.94740000       2.36090000       1.55190000        1 
H      -0.18950000       2.78360000       1.43720000        1 
