32
Properties=species:S:1:pos:R:3:Z:I:1 pbc="F F F"
O      -1.57040000      -0.04780000       1.22820000        8 
C       1.55490000      -0.10210000       1.14980000        6 
C      -2.44660000      -0.11750000      -1.44490000        6 
C       0.51600000       1.01700000       0.91630000        6 
C      -1.25270000       0.75330000      -0.99090000        6 
C       1.15740000      -1.04410000       2.29350000        6 
C       1.84810000      -0.89160000      -0.13240000        6 
C      -2.05220000      -1.59950000      -1.54290000        6 
C      -2.97170000       0.37220000      -2.80010000        6 
C      -0.82220000       0.50980000       0.43820000        6 
C       3.38290000       1.38740000       2.26050000        6 
H       2.61520000       0.45590000       1.48900000        1 
H      -3.27560000      -0.01710000      -0.70960000        1 
H       0.93000000       1.73020000       0.17050000        1 
H       0.37060000       1.59420000       1.85500000        1 
H      -0.38990000       0.56710000      -1.66740000        1 
H      -1.51770000       1.82900000      -1.08010000        1 
H       0.28700000      -1.67300000       2.01140000        1 
H       0.90580000      -0.45950000       3.20370000        1 
H       2.00760000      -1.71540000       2.53870000        1 
H       2.15080000      -0.19970000      -0.94660000        1 
H       0.95520000      -1.46560000      -0.45920000        1 
H       2.68190000      -1.60370000       0.04420000        1 
H      -1.22790000      -1.73810000      -2.27520000        1 
H      -2.92410000      -2.20660000      -1.86750000        1 
H      -1.71990000      -1.98460000      -0.55660000        1 
H      -3.84310000      -0.23900000      -3.11860000        1 
H      -3.30470000       1.42930000      -2.72350000        1 
H      -2.17990000       0.30090000      -3.57680000        1 
H       4.36000000       1.57150000       1.76830000        1 
H       2.57500000       1.41580000       1.50080000        1 
H       3.20010000       2.17110000       3.02420000        1 
