28
Properties=species:S:1:pos:R:3:Z:I:1 pbc="F F F"
C      -2.10350000       0.60720000      -0.93170000        6 
C      -1.20830000      -0.61270000      -0.60940000        6 
C      -0.24370000      -0.40410000       0.57520000        6 
C       0.59390000      -1.66010000       0.86170000        6 
C      -1.28950000       1.83360000      -1.36630000        6 
C      -3.05370000       0.96060000       0.22060000        6 
C       1.54990000      -1.98230000      -0.25500000        6 
C       2.60410000      -1.20680000      -0.51960000        6 
C       3.26260000       0.62150000       1.26020000        6 
H      -2.73820000       0.31500000      -1.79790000        1 
H      -0.82650000      -0.17400000       1.49140000        1 
H       0.43390000       0.45260000       0.37850000        1 
H      -1.86280000      -1.48580000      -0.39350000        1 
H      -0.62190000      -0.86560000      -1.51960000        1 
H      -0.08460000      -2.52610000       1.02050000        1 
H       1.16860000      -1.51350000       1.80200000        1 
H      -0.57620000       1.55790000      -2.17190000        1 
H      -1.97080000       2.61720000      -1.76130000        1 
H      -0.72470000       2.26410000      -0.51290000        1 
H      -3.60640000       0.05730000       0.55600000        1 
H      -3.79630000       1.71290000      -0.12120000        1 
H      -2.49930000       1.38840000       1.08210000        1 
H       1.38950000      -2.87960000      -0.84530000        1 
H       2.85090000      -0.08620000       0.22090000        1 
H       3.28230000      -1.46740000      -1.32550000        1 
H       3.35890000       1.68450000       0.95740000        1 
H       2.47990000       0.52890000       2.04100000        1 
H       4.23170000       0.26280000       1.66370000        1 
