35
Properties=species:S:1:pos:R:3:Z:I:1 pbc="F F F"
O      -2.00700000      -1.04000000      -0.65890000        8 
C      -1.01810000      -0.16400000      -0.16680000        6 
C      -3.16320000      -0.87740000       0.13530000        6 
C       0.35690000      -0.84620000      -0.24230000        6 
C      -1.39720000       0.24470000       1.24750000        6 
C      -2.89050000       0.16180000       1.21910000        6 
C       2.86390000      -0.57410000      -0.03990000        6 
C       1.49970000       0.11330000       0.11950000        6 
C       4.02880000       0.30790000       0.43490000        6 
C      -3.55210000      -2.22970000       0.73480000        6 
C       4.28640000       1.49630000      -0.49120000        6 
C      -1.41540000       1.62880000      -2.05020000        6 
H      -1.00900000       0.86350000      -0.90110000        1 
H      -3.99790000      -0.52790000      -0.51150000        1 
H       4.94950000      -0.31430000       0.46630000        1 
H       3.83620000       0.67430000       1.46670000        1 
H       2.86970000      -1.50540000       0.56800000        1 
H       3.02050000      -0.86420000      -1.10220000        1 
H       1.38210000       0.45110000       1.17190000        1 
H       1.44920000       1.00080000      -0.54660000        1 
H       0.50920000      -1.20950000      -1.28240000        1 
H       0.37490000      -1.73060000       0.43230000        1 
H      -1.04790000       1.27270000       1.48540000        1 
H      -0.99980000      -0.47620000       1.99680000        1 
H      -3.30350000      -0.11370000       2.21480000        1 
H      -3.31280000       1.14440000       0.91150000        1 
H       3.44390000       2.21710000      -0.44980000        1 
H       5.20770000       2.02390000      -0.16590000        1 
H       4.42820000       1.15090000      -1.53730000        1 
H      -2.73870000      -2.61210000       1.38830000        1 
H      -4.48440000      -2.13190000       1.33100000        1 
H      -3.73070000      -2.96380000      -0.07920000        1 
H      -1.69260000       0.90330000      -2.84250000        1 
H      -0.50030000       2.17710000      -2.35480000        1 
H      -2.24580000       2.34920000      -1.90150000        1 
