31
Properties=species:S:1:pos:R:3:Z:I:1 pbc="F F F"
O      -0.68050000      -0.34610000       0.49380000        8 
C       0.10940000       0.50820000      -0.32320000        6 
C      -1.89240000      -0.72910000      -0.13540000        6 
C       1.43170000      -0.20800000      -0.65980000        6 
C       0.36940000       1.80590000       0.46750000        6 
C      -2.38160000      -2.02340000       0.51340000        6 
C      -2.95100000       0.36930000       0.02740000        6 
C       1.20310000      -1.48700000      -1.46180000        6 
C       0.95980000       2.92720000      -0.38950000        6 
C       2.83350000      -0.80170000       1.54580000        6 
H      -0.38520000       0.79210000      -1.28390000        1 
H      -1.74970000      -0.95040000      -1.21930000        1 
H       2.04580000      -0.50350000       0.41500000        1 
H       2.08480000       0.45690000      -1.26270000        1 
H       1.04280000       1.60400000       1.32900000        1 
H      -0.59620000       2.16990000       0.88130000        1 
H       0.63530000      -2.22670000      -0.85990000        1 
H       2.18310000      -1.93440000      -1.72990000        1 
H       0.64630000      -1.26390000      -2.39670000        1 
H       1.00400000       3.86190000       0.20820000        1 
H       1.99140000       2.67920000      -0.71240000        1 
H       0.32510000       3.11160000      -1.28210000        1 
H      -1.61620000      -2.81850000       0.38880000        1 
H      -2.56130000      -1.87100000       1.59940000        1 
H      -3.32330000      -2.36600000       0.03340000        1 
H      -2.63530000       1.29210000      -0.50210000        1 
H      -3.09810000       0.60860000       1.10230000        1 
H      -3.91890000       0.03970000      -0.40710000        1 
H       2.03340000      -1.23760000       2.17880000        1 
H       3.25520000       0.09350000       2.04740000        1 
H       3.63560000      -1.55290000       1.39420000        1 
