30
Properties=species:S:1:pos:R:3:Z:I:1 pbc="F F F"
C       0.35110000      -0.35280000      -1.38980000        6 
C      -0.80060000      -0.80130000      -0.45060000        6 
C      -0.95380000       0.01940000       0.85330000        6 
C       1.77160000      -0.51220000      -0.79430000        6 
C      -2.12060000       1.02150000       0.80750000        6 
C       0.14350000       1.08250000      -1.89090000        6 
C      -3.47800000       0.34490000       1.00110000        6 
C       2.07870000      -1.93460000      -0.32810000        6 
C       2.48000000       0.75970000       1.39860000        6 
H       0.30080000      -1.01020000      -2.28690000        1 
H      -1.98480000       1.76180000       1.62550000        1 
H      -2.11760000       1.58060000      -0.15190000        1 
H      -1.10560000      -0.67630000       1.70780000        1 
H      -0.02680000       0.57990000       1.08190000        1 
H      -0.65510000      -1.86960000      -0.18520000        1 
H      -1.74660000      -0.78420000      -1.03300000        1 
H       1.97050000       0.29530000       0.16910000        1 
H       2.51170000      -0.25160000      -1.58270000        1 
H      -3.68230000      -0.37910000       0.18580000        1 
H      -4.27830000       1.11460000       0.99330000        1 
H      -3.50960000      -0.18510000       1.97670000        1 
H       0.24740000       1.81260000      -1.06080000        1 
H       0.89710000       1.32720000      -2.66960000        1 
H      -0.86440000       1.18990000      -2.34560000        1 
H       1.82540000      -2.66970000      -1.12120000        1 
H       3.16140000      -2.02060000      -0.09740000        1 
H       1.51360000      -2.17010000       0.59740000        1 
H       3.05800000      -0.03930000       1.90690000        1 
H       1.83310000       1.27540000       2.13780000        1 
H       3.18010000       1.49150000       0.94570000        1 
