22
Properties=species:S:1:pos:R:3:Z:I:1 pbc="F F F"
O      -0.24940000      -0.27000000       1.91070000        8 
C      -0.66110000      -0.01650000       0.58730000        6 
C       0.27440000      -0.83850000      -0.33700000        6 
C      -0.52960000       1.49410000       0.30080000        6 
C      -2.13010000      -0.46120000       0.42290000        6 
C       0.00490000      -0.70470000      -1.83930000        6 
C       2.66540000       0.12830000       0.31300000        6 
H       1.47830000      -0.48730000      -0.11980000        1 
H       0.19950000      -1.91450000      -0.06520000        1 
H       0.73310000      -1.33410000      -2.39250000        1 
H      -1.01350000      -1.05880000      -2.09810000        1 
H       0.14000000       0.34220000      -2.17800000        1 
H      -1.10720000       2.08160000       1.04640000        1 
H      -0.92570000       1.75120000      -0.70370000        1 
H       0.53420000       1.80870000       0.36110000        1 
H      -2.22180000      -1.55790000       0.57440000        1 
H      -2.52070000      -0.20200000      -0.58320000        1 
H      -2.77490000       0.04710000       1.17160000        1 
H       3.28210000      -0.39650000       1.07130000        1 
H       2.42880000       1.15090000       0.67220000        1 
H       3.22790000       0.19240000      -0.64110000        1 
H      -0.83490000       0.24550000       2.52600000        1 
