22
Properties=species:S:1:pos:R:3:Z:I:1 pbc="F F F"
C      -0.57120000       0.60800000      -0.31290000        6 
C       0.38090000      -0.11810000       0.62740000        6 
C      -1.80920000      -0.27640000      -0.37280000        6 
C       0.08270000      -1.60120000       0.44590000        6 
C      -1.29550000      -1.70120000      -0.20870000        6 
C      -0.88600000       2.03260000       0.15210000        6 
C       2.84860000       0.39830000      -0.24770000        6 
H      -0.10890000       0.65110000      -1.32490000        1 
H       0.85090000      -2.05910000      -0.21470000        1 
H       0.09550000      -2.12500000       1.42670000        1 
H      -1.20520000      -2.18600000      -1.20580000        1 
H      -1.99220000      -2.29940000       0.41820000        1 
H       1.59250000       0.14530000       0.34030000        1 
H       0.18450000       0.16780000       1.68520000        1 
H      -2.34890000      -0.14880000      -1.33650000        1 
H      -2.50120000      -0.03970000       0.46650000        1 
H      -1.34890000       2.02830000       1.16240000        1 
H       0.04830000       2.63210000       0.18820000        1 
H      -1.58710000       2.51530000      -0.56140000        1 
H       3.32560000       1.21000000       0.33910000        1 
H       2.79580000       0.69560000      -1.31520000        1 
H       3.44900000      -0.52960000      -0.15140000        1 
