31
Properties=species:S:1:pos:R:3:Z:I:1 pbc="F F F"
C       0.09340000       0.08760000       0.77590000        6 
C      -1.00560000      -0.03890000      -0.30160000        6 
C      -1.27340000      -1.47590000      -0.78120000        6 
C      -0.26010000      -0.66390000       2.06470000        6 
C      -2.35260000      -1.49590000      -1.85930000        6 
C       2.38120000       1.93430000       0.05320000        6 
C       3.74170000      -0.19330000      -0.58560000        6 
C       2.47040000       0.43230000      -0.07140000        6 
C       1.43880000      -0.38030000       0.25100000        6 
C      -2.96660000       1.51960000       0.41620000        6 
H       0.13140000       1.16170000       1.05040000        1 
H      -0.34800000      -1.92070000      -1.20360000        1 
H      -1.61770000      -2.10410000       0.06660000        1 
H      -2.08600000       0.44660000       0.16410000        1 
H      -0.71460000       0.58700000      -1.17440000        1 
H      -2.53160000      -2.54170000      -2.18700000        1 
H      -3.30350000      -1.08110000      -1.46210000        1 
H      -2.03080000      -0.89900000      -2.73930000        1 
H       0.47280000      -0.40880000       2.85990000        1 
H      -1.27120000      -0.36970000       2.41830000        1 
H      -0.23530000      -1.76350000       1.91190000        1 
H       1.53850000       2.31580000      -0.56140000        1 
H       2.22910000       2.21760000       1.11590000        1 
H       3.30980000       2.42900000      -0.29960000        1 
H       4.15520000      -0.88480000       0.17890000        1 
H       3.53000000      -0.76410000      -1.51460000        1 
H       4.51360000       0.57030000      -0.81540000        1 
H       1.57000000      -1.45220000       0.12190000        1 
H      -3.98850000       1.17440000       0.15690000        1 
H      -2.59970000       0.95820000       1.30000000        1 
H      -2.99080000       2.60360000       0.65070000        1 
