22
Properties=species:S:1:pos:R:3:Z:I:1 pbc="F F F"
O       0.30120000       0.07140000      -1.90330000        8 
C      -0.34480000      -0.26810000      -0.69800000        6 
C      -0.76880000       1.06410000      -0.02490000        6 
C       0.64150000      -1.04580000       0.19730000        6 
C      -1.57590000      -1.14350000      -1.01560000        6 
C      -1.49550000       0.92460000       1.31770000        6 
C       2.76380000       0.52790000       0.44930000        6 
H       0.13440000       1.69350000       0.13400000        1 
H      -1.43110000       1.62580000      -0.72000000        1 
H      -0.85080000       0.43200000       2.07350000        1 
H      -2.44350000       0.36080000       1.20420000        1 
H      -1.74860000       1.93640000       1.69870000        1 
H       1.64650000      -0.28560000       0.52240000        1 
H       1.03700000      -1.93380000      -0.34090000        1 
H       0.14820000      -1.40940000       1.12270000        1 
H      -2.31530000      -0.56910000      -1.61350000        1 
H      -2.06520000      -1.50520000      -0.08730000        1 
H      -1.27470000      -2.03730000      -1.60300000        1 
H       2.47520000       0.99440000       1.41360000        1 
H       2.83860000       1.31120000      -0.33270000        1 
H       3.74510000       0.02280000       0.56190000        1 
H       0.58260000      -0.76700000      -2.35610000        1 
