19
Properties=species:S:1:pos:R:3:Z:I:1 pbc="F F F"
O       0.05330000       1.98670000      -0.67480000        8 
C      -2.46240000      -0.38360000       0.29680000        6 
C      -2.07890000       1.08900000       0.06930000        6 
C       1.13320000      -0.84300000      -0.81640000        6 
C      -0.23100000      -0.37880000      -0.41570000        6 
C      -1.22680000      -1.16300000      -0.04170000        6 
C      -0.66630000       0.99770000      -0.37490000        6 
C       3.04720000       0.32980000       0.68510000        6 
H      -2.74390000      -0.56120000       1.35680000        1 
H      -3.29590000      -0.68480000      -0.37330000        1 
H      -2.15060000       1.67330000       1.01170000        1 
H      -2.70470000       1.54930000      -0.72520000        1 
H       1.98020000      -0.33940000      -0.05770000        1 
H       1.34210000      -0.52310000      -1.85850000        1 
H       1.21150000      -1.94960000      -0.75800000        1 
H      -1.15890000      -2.24210000       0.01420000        1 
H       2.88690000       0.08720000       1.75570000        1 
H       4.02630000      -0.07540000       0.35670000        1 
H       3.03870000       1.43090000       0.55010000        1 
