30
Properties=species:S:1:pos:R:3:Z:I:1 pbc="F F F"
C      -0.67000000       0.01890000      -0.62000000        6 
C       1.82020000      -0.25450000       0.18120000        6 
C       0.83890000       0.22190000      -0.91980000        6 
C      -1.01770000      -1.47350000      -0.39590000        6 
C       1.54920000       0.41540000       1.53650000        6 
C       3.26400000       0.02680000      -0.25710000        6 
C      -1.49200000       0.61570000      -1.77560000        6 
C      -2.49040000      -1.70390000      -0.05240000        6 
C      -1.21580000       1.52760000       1.51800000        6 
H       1.73470000      -1.35440000       0.30600000        1 
H      -0.97050000       0.66270000       0.40270000        1 
H      -0.42970000      -1.86680000       0.45790000        1 
H      -0.75410000      -2.06820000      -1.29770000        1 
H       1.01950000       1.30550000      -1.09830000        1 
H       1.08490000      -0.30930000      -1.86650000        1 
H      -2.63370000      -2.75630000       0.27200000        1 
H      -2.80720000      -1.03350000       0.77470000        1 
H      -3.13380000      -1.53230000      -0.94020000        1 
H       1.51190000       1.52060000       1.42800000        1 
H       2.34840000       0.15520000       2.26320000        1 
H       0.59120000       0.05530000       1.96460000        1 
H       3.43290000       1.11880000      -0.37680000        1 
H       3.97930000      -0.36520000       0.49740000        1 
H       3.47770000      -0.47720000      -1.22390000        1 
H      -1.36130000       0.01620000      -2.70200000        1 
H      -2.56900000       0.65260000      -1.51230000        1 
H      -1.17380000       1.66050000      -1.97840000        1 
H      -1.97590000       2.26730000       1.19290000        1 
H      -0.31980000       2.06050000       1.89750000        1 
H      -1.63810000       0.89350000       2.32450000        1 
