27
Properties=species:S:1:pos:R:3:Z:I:1 pbc="F F F"
O       2.12660000       0.55480000       1.04540000        8 
O       3.16550000       0.22510000      -0.99670000        8 
C      -1.07510000      -1.17350000      -0.07760000        6 
C       0.06880000      -0.13610000      -0.05310000        6 
C       1.20330000      -0.52350000       0.90540000        6 
C      -2.27460000      -0.60980000      -0.84780000        6 
C      -0.62960000      -2.50300000      -0.70500000        6 
C       3.94870000       2.07810000       0.28430000        6 
C       3.06160000       0.90010000       0.06360000        6 
C      -3.34690000       1.44220000       0.44730000        6 
H      -1.40930000      -1.36970000       0.96510000        1 
H      -0.33740000       0.84380000       0.28180000        1 
H       0.47480000       0.00190000      -1.07870000        1 
H       1.73810000      -1.42900000       0.54740000        1 
H       0.77800000      -0.74620000       1.90700000        1 
H      -2.68880000       0.48860000      -0.28590000        1 
H      -3.11500000      -1.33650000      -0.83900000        1 
H      -1.99740000      -0.39270000      -1.90200000        1 
H      -1.49030000      -3.20210000      -0.77530000        1 
H      -0.21970000      -2.33870000      -1.72470000        1 
H       0.14290000      -2.99290000      -0.07760000        1 
H       4.55180000       1.92000000       1.20250000        1 
H       4.63380000       2.22080000      -0.57840000        1 
H       3.32810000       2.98990000       0.40760000        1 
H      -3.32870000       1.22080000       1.53420000        1 
H      -2.91440000       2.44780000       0.26740000        1 
H      -4.39450000       1.41960000       0.08280000        1 
