31
Properties=species:S:1:pos:R:3:Z:I:1 pbc="F F F"
O      -1.02510000       0.19800000       0.26970000        8 
C      -0.42320000       0.13180000      -1.01650000        6 
C      -1.74490000      -0.98120000       0.58780000        6 
C       1.00880000      -0.44380000      -0.91500000        6 
C      -0.46460000       1.52010000      -1.70600000        6 
C      -1.63460000      -1.22190000       2.09240000        6 
C      -3.21330000      -0.81250000       0.18620000        6 
C       1.94150000       0.35710000      -0.00900000        6 
C      -0.48380000       2.70870000      -0.73900000        6 
C       4.12210000      -1.00240000       0.69200000        6 
H      -0.98350000      -0.54910000      -1.70260000        1 
H      -1.33450000      -1.88980000       0.08640000        1 
H       1.45940000      -0.50920000      -1.92900000        1 
H       0.95320000      -1.48030000      -0.51990000        1 
H      -1.38860000       1.58280000      -2.32210000        1 
H       0.39130000       1.63260000      -2.40650000        1 
H       3.04290000      -0.31380000       0.16590000        1 
H       2.20470000       1.32560000      -0.48170000        1 
H       1.47630000       0.53200000       0.98400000        1 
H      -1.42770000       2.71370000      -0.15350000        1 
H      -0.43140000       3.65500000      -1.31740000        1 
H       0.37430000       2.67850000      -0.03970000        1 
H      -2.18590000      -2.14310000       2.37900000        1 
H      -2.04890000      -0.35900000       2.65680000        1 
H      -0.56720000      -1.34980000       2.37240000        1 
H      -3.29450000      -0.66410000      -0.91090000        1 
H      -3.79430000      -1.71930000       0.45870000        1 
H      -3.65580000       0.07000000       0.69610000        1 
H       3.65450000      -1.97010000       0.96710000        1 
H       4.94630000      -1.18150000      -0.02870000        1 
H       4.52670000      -0.51500000       1.60280000        1 
