35
Properties=species:S:1:pos:R:3:Z:I:1 pbc="F F F"
O       1.84340000       1.07390000       0.53080000        8 
C       1.15430000       0.78530000      -0.66900000        6 
C       3.19010000       0.68750000       0.36620000        6 
C       0.08360000      -0.28950000      -0.40640000        6 
C       2.16110000       0.32640000      -1.71920000        6 
C       3.31750000      -0.14810000      -0.89770000        6 
C      -2.00340000      -0.88250000       0.94800000        6 
C      -0.97640000       0.20280000       0.59140000        6 
C      -2.97010000      -1.18180000      -0.20650000        6 
C       3.66580000      -0.07290000       1.60280000        6 
C      -4.05690000      -2.16120000       0.22780000        6 
C      -1.90290000       2.52040000      -0.26320000        6 
H       0.65280000       1.71050000      -1.02990000        1 
H       3.80660000       1.60760000       0.25650000        1 
H      -3.45270000      -0.24070000      -0.54900000        1 
H      -2.41920000      -1.62840000      -1.06070000        1 
H      -1.47810000      -1.81350000       1.25510000        1 
H      -2.59000000      -0.52240000       1.82150000        1 
H      -1.57430000       1.22120000       0.11700000        1 
H      -0.47260000       0.51500000       1.53200000        1 
H      -0.41110000      -0.53920000      -1.36860000        1 
H       0.57090000      -1.20810000      -0.01080000        1 
H       2.47720000       1.19450000      -2.33980000        1 
H       1.77530000      -0.47490000      -2.38740000        1 
H       4.28760000       0.02620000      -1.41240000        1 
H       3.19620000      -1.23370000      -0.68230000        1 
H      -3.60240000      -3.11890000       0.56010000        1 
H      -4.65550000      -1.73100000       1.05890000        1 
H      -4.73480000      -2.36750000      -0.62720000        1 
H       3.59550000       0.58340000       2.49590000        1 
H       3.03500000      -0.97190000       1.77200000        1 
H       4.72380000      -0.38670000       1.47550000        1 
H      -2.37660000       2.87590000       0.67480000        1 
H      -2.68380000       2.36390000      -1.03560000        1 
H      -1.17590000       3.27840000      -0.62070000        1 
