30
Properties=species:S:1:pos:R:3:Z:I:1 pbc="F F F"
C      -0.87200000       0.30170000      -1.06650000        6 
C       0.88630000      -1.01020000       0.30800000        6 
C      -0.56640000      -0.97280000      -0.22390000        6 
C      -1.74160000       1.32180000      -0.29420000        6 
C       1.00460000      -1.99770000       1.47510000        6 
C       1.87690000      -1.39400000      -0.80140000        6 
C      -1.57440000      -0.08140000      -2.37690000        6 
C      -1.02260000       1.91970000       0.91490000        6 
C       1.40350000       1.37480000       1.38950000        6 
H       1.20390000       0.11410000       0.73860000        1 
H       0.07260000       0.81340000      -1.35410000        1 
H      -2.01330000       2.16060000      -0.97230000        1 
H      -2.68780000       0.84330000       0.04150000        1 
H      -1.27940000      -1.03430000       0.62770000        1 
H      -0.74640000      -1.89860000      -0.81550000        1 
H      -0.05950000       2.37810000       0.60540000        1 
H      -0.83410000       1.14290000       1.68480000        1 
H      -1.65820000       2.70870000       1.36930000        1 
H       0.71930000      -3.02230000       1.15280000        1 
H       2.04730000      -2.01670000       1.85750000        1 
H       0.34120000      -1.68390000       2.30890000        1 
H       2.91420000      -1.38570000      -0.40430000        1 
H       1.83030000      -0.67000000      -1.64050000        1 
H       1.65330000      -2.40910000      -1.19430000        1 
H      -2.54340000      -0.58400000      -2.16820000        1 
H      -1.76380000       0.82280000      -2.99430000        1 
H      -0.93150000      -0.76830000      -2.96810000        1 
H       2.21350000       2.00590000       0.96970000        1 
H       1.67080000       1.06820000       2.42160000        1 
H       0.45680000       1.95280000       1.40900000        1 
