30
Properties=species:S:1:pos:R:3:Z:I:1 pbc="F F F"
C      -1.34280000       0.06940000       0.01630000        6 
C       1.01240000      -1.12100000       0.18090000        6 
C       0.15040000       0.02420000      -0.43130000        6 
C      -1.98960000       1.32950000      -0.59750000        6 
C      -1.47070000       0.15800000       1.55060000        6 
C      -2.11090000      -1.16760000      -0.50020000        6 
C       1.90350000      -0.60020000       1.31810000        6 
C       1.88620000      -1.78170000      -0.89410000        6 
C       1.42510000       2.30690000      -0.48880000        6 
H       0.36890000      -1.91890000       0.60230000        1 
H       0.69390000       1.14510000      -0.17040000        1 
H       0.16470000      -0.04740000      -1.54250000        1 
H       1.29220000      -0.12760000       2.11330000        1 
H       2.63040000       0.14870000       0.93650000        1 
H       2.46790000      -1.44010000       1.77670000        1 
H       2.56780000      -1.03610000      -1.35760000        1 
H       2.49500000      -2.59810000      -0.44970000        1 
H       1.24540000      -2.22510000      -1.68610000        1 
H      -3.06300000       1.40110000      -0.31700000        1 
H      -1.92400000       1.30470000      -1.70700000        1 
H      -1.47910000       2.24950000      -0.23900000        1 
H      -1.09700000      -0.76440000       2.04170000        1 
H      -0.89850000       1.02730000       1.94000000        1 
H      -2.53480000       0.28370000       1.84640000        1 
H      -1.99010000      -1.27250000      -1.59990000        1 
H      -3.19610000      -1.07240000      -0.27900000        1 
H      -1.75890000      -2.10260000      -0.01950000        1 
H       1.94610000       3.02460000       0.17780000        1 
H       2.09760000       2.02310000      -1.32420000        1 
H       0.50810000       2.77980000      -0.89670000        1 
