42
Properties=species:S:1:pos:R:3:Z:I:1 pbc="F F F"
O      -0.73280000      -0.55690000      -1.22300000        8 
O       1.05320000      -0.06330000       0.97680000        8 
O      -0.95870000       2.02730000      -2.20800000        8 
C       2.47680000      -0.04850000       1.05950000        6 
C      -1.46220000      -1.74230000      -0.90650000        6 
C      -0.88820000       0.52290000      -0.30970000        6 
C       0.49890000       0.96340000       0.17350000        6 
C      -1.60930000       1.68200000      -1.01470000        6 
C       2.84880000      -1.01910000       2.19310000        6 
C       3.05010000       1.34490000       1.41920000        6 
C       3.10880000      -0.57820000      -0.24700000        6 
C      -1.18880000      -2.72780000      -2.05590000        6 
C      -2.98880000      -1.49690000      -0.85110000        6 
C      -0.96120000      -2.39750000       0.40170000        6 
C      -2.37210000       3.71960000       0.48230000        6 
H      -1.48230000       0.27540000       0.59460000        1 
H       0.39400000       1.88340000       0.78970000        1 
H       1.11920000       1.19950000      -0.71610000        1 
H      -1.69280000       2.67650000      -0.24450000        1 
H      -2.64660000       1.37300000      -1.25880000        1 
H       2.40070000      -0.68050000       3.15230000        1 
H       3.95100000      -1.08470000       2.32330000        1 
H       2.45940000      -2.03700000       1.97340000        1 
H       2.53720000       1.75140000       2.31710000        1 
H       4.13840000       1.27620000       1.63500000        1 
H       2.92580000       2.06480000       0.58320000        1 
H       3.02060000       0.15220000      -1.07650000        1 
H       2.61250000      -1.52300000      -0.55670000        1 
H       4.19290000      -0.77850000      -0.10480000        1 
H      -1.71640000      -3.69320000      -1.89480000        1 
H      -0.09910000      -2.93220000      -2.13810000        1 
H      -1.52990000      -2.29770000      -3.02250000        1 
H      -3.32720000      -0.97360000      -1.77070000        1 
H      -3.28260000      -0.89090000       0.02970000        1 
H      -3.53580000      -2.46180000      -0.77760000        1 
H      -1.21900000      -1.79650000       1.29670000        1 
H      -1.42550000      -3.39810000       0.53810000        1 
H       0.14160000      -2.52790000       0.36850000        1 
H      -2.97020000       4.40550000      -0.15230000        1 
H      -2.99920000       3.34880000       1.31900000        1 
H      -1.49530000       4.26340000       0.89010000        1 
H      -0.34610000       2.77550000      -1.98730000        1 
