31
Properties=species:S:1:pos:R:3:Z:I:1 pbc="F F F"
C      -0.10290000       0.31710000      -0.47160000        6 
C       1.02830000      -0.59780000       0.04840000        6 
C       2.26350000      -0.56050000      -0.86370000        6 
C      -0.81150000      -0.25490000      -1.70860000        6 
C       3.37900000      -1.44730000      -0.31730000        6 
C      -2.14040000      -1.52760000       1.01900000        6 
C      -2.80010000       0.54810000       2.38820000        6 
C      -1.94600000      -0.05990000       1.30290000        6 
C      -1.06880000       0.72720000       0.63020000        6 
C       0.89820000       2.69300000      -1.18640000        6 
H       0.42960000       1.38310000      -0.84300000        1 
H       1.99490000      -0.91650000      -1.88130000        1 
H       2.64370000       0.48110000      -0.94290000        1 
H       0.67870000      -1.64710000       0.12280000        1 
H       1.33140000      -0.26200000       1.06500000        1 
H       3.69070000      -1.09890000       0.69050000        1 
H       4.25680000      -1.40110000      -0.99570000        1 
H       3.03640000      -2.50200000      -0.25140000        1 
H      -1.77730000       0.26550000      -1.88330000        1 
H      -0.17750000      -0.09950000      -2.60650000        1 
H      -0.99060000      -1.34460000      -1.61130000        1 
H      -2.52480000      -1.67710000      -0.00830000        1 
H      -2.89510000      -1.96040000       1.70960000        1 
H      -1.20190000      -2.09010000       1.17800000        1 
H      -2.60160000       0.02890000       3.34930000        1 
H      -3.87240000       0.42560000       2.12740000        1 
H      -2.59970000       1.63140000       2.53230000        1 
H      -1.02400000       1.77990000       0.89740000        1 
H      -0.00570000       3.26290000      -1.48490000        1 
H       1.17010000       2.95130000      -0.14230000        1 
H       1.73870000       2.95240000      -1.86240000        1 
