22
Properties=species:S:1:pos:R:3:Z:I:1 pbc="F F F"
C      -0.16520000      -0.24970000       0.95210000        6 
C      -0.74250000       1.09320000       0.52610000        6 
C      -0.70380000      -1.24470000      -0.06680000        6 
C      -2.09550000       0.77360000      -0.09830000        6 
C      -2.07100000      -0.70840000      -0.47420000        6 
C       1.36390000      -0.23870000       1.00860000        6 
C       2.76230000       0.35830000      -1.14710000        6 
H      -0.56420000      -0.51150000       1.95850000        1 
H      -2.27260000       1.40810000      -0.99410000        1 
H      -2.90590000       0.96290000       0.63970000        1 
H      -2.86930000      -1.25150000       0.07810000        1 
H      -2.23530000      -0.84460000      -1.56540000        1 
H      -0.09290000       1.57470000      -0.23910000        1 
H      -0.84940000       1.77870000       1.39490000        1 
H      -0.04560000      -1.28290000      -0.96380000        1 
H      -0.78250000      -2.26420000       0.36960000        1 
H       1.86580000       0.06420000      -0.15330000        1 
H       1.73760000      -1.23980000       1.31180000        1 
H       1.70870000       0.50800000       1.75510000        1 
H       2.20890000       0.96170000      -1.89580000        1 
H       3.11350000      -0.58310000      -1.61750000        1 
H       3.63510000       0.93580000      -0.77900000        1 
