31
Properties=species:S:1:pos:R:3:Z:I:1 pbc="F F F"
C       0.50300000      -0.69840000       0.20260000        6 
C      -0.81580000       0.02100000       0.59420000        6 
C      -1.88050000       0.00950000      -0.51560000        6 
C       0.56520000      -2.11600000       0.78770000        6 
C      -2.43340000      -1.38240000      -0.80830000        6 
C       2.62630000       0.56370000      -1.55510000        6 
C       3.76120000       1.41140000       0.63090000        6 
C       2.64710000       0.65690000      -0.04830000        6 
C       1.69280000       0.08820000       0.72260000        6 
C      -3.98760000       1.42970000       0.33150000        6 
H       0.54880000      -0.79930000      -0.90100000        1 
H      -2.84770000       0.74840000      -0.14380000        1 
H      -1.46340000       0.44840000      -1.44820000        1 
H      -1.24380000      -0.40430000       1.52870000        1 
H      -0.61020000       1.09290000       0.81190000        1 
H      -1.67000000      -2.00480000      -1.31920000        1 
H      -2.75890000      -1.87790000       0.13080000        1 
H      -3.31060000      -1.29280000      -1.48240000        1 
H       0.53790000      -2.08580000       1.89860000        1 
H       1.50520000      -2.61590000       0.46930000        1 
H      -0.28530000      -2.73160000       0.43300000        1 
H       3.48290000       1.10330000      -2.00950000        1 
H       2.68970000      -0.49940000      -1.86940000        1 
H       1.69200000       1.01680000      -1.94920000        1 
H       4.31560000       0.73010000       1.31070000        1 
H       3.33900000       2.25060000       1.22350000        1 
H       4.48130000       1.83170000      -0.10150000        1 
H       1.76360000       0.20370000       1.80240000        1 
H      -3.74000000       2.50540000       0.22020000        1 
H      -4.26480000       1.22120000       1.38520000        1 
H      -4.83950000       1.17580000      -0.33220000        1 
