28
Properties=species:S:1:pos:R:3:Z:I:1 pbc="F F F"
C      -0.66900000       0.45780000      -1.46210000        6 
C      -1.70190000      -0.46660000      -0.80270000        6 
C       0.45400000       0.85050000      -0.49230000        6 
C      -2.82500000      -0.81780000      -1.77280000        6 
C       2.75430000       1.08700000       1.36320000        6 
C       3.31000000      -1.41210000       0.85850000        6 
C       2.43860000      -0.20200000       0.64220000        6 
C       1.38730000      -0.30170000      -0.19860000        6 
C      -2.93460000       0.59610000       1.31490000        6 
H      -2.20610000       0.11350000       0.21180000        1 
H      -1.21590000      -1.40670000      -0.46470000        1 
H      -0.23540000      -0.03130000      -2.36250000        1 
H      -1.18200000       1.38660000      -1.79460000        1 
H       0.00960000       1.22970000       0.45340000        1 
H       1.04060000       1.67410000      -0.95340000        1 
H      -2.41720000      -1.34610000      -2.66080000        1 
H      -3.55610000      -1.48270000      -1.26690000        1 
H      -3.35150000       0.10330000      -2.10140000        1 
H       2.94820000       1.89550000       0.62750000        1 
H       3.65450000       0.98520000       2.00430000        1 
H       1.90250000       1.37610000       2.01370000        1 
H       4.13580000      -1.20180000       1.56950000        1 
H       3.75550000      -1.73120000      -0.10750000        1 
H       2.70050000      -2.24450000       1.26980000        1 
H       1.20880000      -1.25280000      -0.69550000        1 
H      -3.84950000       1.10280000       0.94470000        1 
H      -2.33470000       1.30930000       1.91670000        1 
H      -3.22130000      -0.27030000       1.94570000        1 
