22
Properties=species:S:1:pos:R:3:Z:I:1 pbc="F F F"
C      -1.51280000      -0.18380000      -0.31880000        6 
C      -0.30920000       0.66890000      -0.70120000        6 
C      -0.96000000      -1.22930000       0.63980000        6 
C       0.89540000      -0.26250000      -0.63030000        6 
C       0.46310000      -1.49200000       0.16710000        6 
C      -2.64670000       0.63970000       0.29890000        6 
C       3.05640000       1.04700000       0.18030000        6 
H      -1.89420000      -0.69780000      -1.23040000        1 
H       1.86990000       0.32160000      -0.05680000        1 
H       1.20810000      -0.56280000      -1.65450000        1 
H       1.14100000      -1.66180000       1.03130000        1 
H       0.48120000      -2.39140000      -0.48720000        1 
H      -0.16590000       1.49740000       0.02750000        1 
H      -0.42950000       1.09840000      -1.71960000        1 
H      -1.57130000      -2.15770000       0.62070000        1 
H      -0.93120000      -0.83210000       1.67940000        1 
H      -3.00800000       1.39220000      -0.43380000        1 
H      -2.30240000       1.16710000       1.21450000        1 
H      -3.49390000      -0.02680000       0.56640000        1 
H       2.86180000       2.13610000       0.26240000        1 
H       3.43170000       0.66410000       1.15150000        1 
H       3.81640000       0.86540000      -0.60730000        1 
