35
Properties=species:S:1:pos:R:3:Z:I:1 pbc="F F F"
O      -1.49440000      -0.13640000       0.60850000        8 
C      -0.59130000      -0.06880000      -0.47450000        6 
C      -2.80060000      -0.00930000       0.08980000        6 
C       0.57810000       0.87340000      -0.14110000        6 
C      -1.34350000       0.39220000      -1.71470000        6 
C      -2.74180000      -0.05560000      -1.43060000        6 
C       1.99390000      -0.91290000       1.10910000        6 
C       1.34510000       0.48280000       1.13630000        6 
C       3.02740000      -1.07090000      -0.01520000        6 
C      -3.69660000      -1.10670000       0.66140000        6 
C       3.77160000      -2.39770000       0.10470000        6 
C      -0.02470000       3.43490000       0.22180000        6 
H      -0.20120000      -1.09090000      -0.67250000        1 
H      -3.20520000       0.97820000       0.40560000        1 
H       2.52040000      -1.04450000      -1.00310000        1 
H       3.76430000      -0.23970000       0.02960000        1 
H       1.21430000      -1.69920000       1.02450000        1 
H       2.50130000      -1.06530000       2.08700000        1 
H       2.13720000       1.24240000       1.31330000        1 
H       0.65240000       0.53530000       2.00370000        1 
H       0.11820000       2.04690000       0.03590000        1 
H       1.27700000       0.92560000      -1.00290000        1 
H      -0.94100000      -0.07470000      -2.64030000        1 
H      -1.32470000       1.50070000      -1.81580000        1 
H      -3.49310000       0.62040000      -1.89430000        1 
H      -2.88280000      -1.09200000      -1.81260000        1 
H       4.50100000      -2.49140000      -0.72730000        1 
H       3.05720000      -3.24670000       0.04850000        1 
H       4.32400000      -2.44560000       1.06730000        1 
H      -3.29200000      -2.10980000       0.40700000        1 
H      -4.72510000      -1.01260000       0.25220000        1 
H      -3.74480000      -1.01290000       1.76690000        1 
H      -0.62730000       3.43530000       1.15330000        1 
H       0.93370000       3.96410000       0.40120000        1 
H      -0.58740000       3.95150000      -0.58280000        1 
