31
Properties=species:S:1:pos:R:3:Z:I:1 pbc="F F F"
C       1.04280000      -1.03370000       0.00170000        6 
C       2.30660000      -0.43980000       0.67390000        6 
C       3.08860000       0.53830000      -0.22360000        6 
C       0.63350000      -2.33060000       0.71410000        6 
C       2.38060000       1.87610000      -0.43150000        6 
C      -2.23500000       0.99400000      -0.61410000        6 
C      -1.39200000      -1.08990000      -1.88180000        6 
C      -1.18510000      -0.07020000      -0.78560000        6 
C      -0.11520000      -0.05340000       0.04340000        6 
C      -3.47200000       1.00300000       1.77530000        6 
H       1.30780000      -1.27370000      -1.04980000        1 
H       4.06900000       0.74160000       0.25990000        1 
H       3.29760000       0.07100000      -1.21030000        1 
H       3.00630000      -1.27020000       0.91620000        1 
H       2.05100000       0.04590000       1.64170000        1 
H       2.05750000       2.30380000       0.54130000        1 
H       3.07920000       2.59080000      -0.91560000        1 
H       1.50340000       1.75510000      -1.09950000        1 
H      -0.28320000      -2.76130000       0.26010000        1 
H       1.44250000      -3.08700000       0.62840000        1 
H       0.43590000      -2.13690000       1.79070000        1 
H      -2.71460000       0.92870000       0.53150000        1 
H      -3.05890000       0.86720000      -1.34830000        1 
H      -1.78260000       1.99730000      -0.76430000        1 
H      -1.42630000      -0.57010000      -2.86210000        1 
H      -2.36110000      -1.60660000      -1.72020000        1 
H      -0.60650000      -1.86600000      -1.93390000        1 
H      -0.07590000       0.72730000       0.80020000        1 
H      -3.82670000       2.05230000       1.83720000        1 
H      -4.34400000       0.31710000       1.77800000        1 
H      -2.82330000       0.77980000       2.64710000        1 
