28
Properties=species:S:1:pos:R:3:Z:I:1 pbc="F F F"
C      -2.69270000      -0.53930000       0.20020000        6 
C      -2.04340000      -0.46730000      -1.20550000        6 
C      -0.76830000       0.39530000      -1.31130000        6 
C      -3.25320000       0.81450000       0.66020000        6 
C      -1.76070000      -1.13360000       1.26290000        6 
C       2.93030000      -0.46430000      -0.54120000        6 
C       0.47800000      -0.35660000      -0.92300000        6 
C       1.67060000       0.25510000      -0.92050000        6 
C       4.30560000       1.03370000       1.16690000        6 
H      -3.56060000      -1.23020000       0.11010000        1 
H      -1.83210000      -1.49800000      -1.56740000        1 
H      -2.79800000      -0.05120000      -1.90870000        1 
H      -0.65310000       0.71820000      -2.36890000        1 
H      -0.85900000       1.31450000      -0.69770000        1 
H      -3.88900000       1.26100000      -0.13360000        1 
H      -3.88270000       0.67250000       1.56450000        1 
H      -2.44030000       1.52490000       0.91680000        1 
H      -2.32090000      -1.29600000       2.20840000        1 
H      -1.36860000      -2.11590000       0.92430000        1 
H      -0.91160000      -0.45050000       1.47530000        1 
H       3.44720000       0.10590000       0.43570000        1 
H       2.73860000      -1.52590000      -0.27470000        1 
H       3.64010000      -0.43290000      -1.39360000        1 
H       1.74210000       1.30350000      -1.19630000        1 
H       0.41270000      -1.40660000      -0.65120000        1 
H       5.32400000       0.82560000       0.77930000        1 
H       4.13930000       2.13010000       1.19990000        1 
H       4.20590000       0.61370000       2.18890000        1 
