22
Properties=species:S:1:pos:R:3:Z:I:1 pbc="F F F"
C      -2.56120000      -0.90820000      -0.00880000        6 
C       3.23770000      -0.52520000       0.07080000        6 
C      -1.06630000      -0.79750000       0.01180000        6 
C       1.74020000      -0.61070000       0.05030000        6 
C      -0.44140000       0.45830000       0.02880000        6 
C       0.95300000       0.55170000       0.04800000        6 
C       1.11480000      -1.86610000       0.03320000        6 
C      -0.28020000      -1.95900000       0.01410000        6 
C      -1.36260000       2.90730000      -0.06020000        6 
H      -2.88220000      -1.45340000      -0.92130000        1 
H      -3.04430000       0.09190000      -0.00820000        1 
H      -2.90620000      -1.46600000       0.88720000        1 
H       3.65200000      -1.02210000      -0.83170000        1 
H       3.58590000       0.52960000       0.08270000        1 
H       3.62800000      -1.03470000       0.97680000        1 
H      -1.18570000       1.60410000       0.02700000        1 
H       1.41420000       1.53100000       0.06100000        1 
H       1.70820000      -2.77220000       0.03480000        1 
H      -0.74830000      -2.93570000       0.00100000        1 
H      -0.58450000       3.69510000      -0.12900000        1 
H      -1.84220000       2.77370000      -1.05170000        1 
H      -2.12880000       3.20820000       0.68360000        1 
