24
Properties=species:S:1:pos:R:3:Z:I:1 pbc="F F F"
O       0.49690000      -0.20850000      -0.08070000        8 
O      -0.84810000       1.66750000      -0.23620000        8 
C      -1.80940000      -0.21550000       0.89730000        6 
C       1.58350000       0.34320000      -0.82150000        6 
C      -3.05380000      -0.33090000       0.01180000        6 
C      -2.13040000       0.52110000       2.20140000        6 
C       1.27930000       0.32840000      -2.31430000        6 
C      -0.69940000       0.47760000       0.15840000        6 
C       3.62830000      -0.91130000       0.25100000        6 
H      -1.47480000      -1.24420000       1.15630000        1 
H       2.60910000      -0.35980000      -0.61410000        1 
H       1.79950000       1.37910000      -0.48050000        1 
H       2.15870000       0.70690000      -2.87600000        1 
H       0.40570000       0.97510000      -2.53920000        1 
H       1.06070000      -0.70900000      -2.64430000        1 
H      -2.80700000      -0.87940000      -0.92260000        1 
H      -3.84990000      -0.89370000       0.54430000        1 
H      -3.44440000       0.67500000      -0.25450000        1 
H      -2.49610000       1.55010000       1.99480000        1 
H      -2.91240000      -0.02880000       2.76720000        1 
H      -1.22150000       0.58360000       2.83750000        1 
H       3.24200000      -1.94830000       0.32940000        1 
H       4.37010000      -0.85430000      -0.57200000        1 
H       4.11330000      -0.62420000       1.20650000        1 
