28
Properties=species:S:1:pos:R:3:Z:I:1 pbc="F F F"
C      -1.28290000      -0.08870000       0.95080000        6 
C      -0.21700000       1.01420000       1.11270000        6 
C       2.94190000       0.75880000      -1.13980000        6 
C      -0.96550000      -1.32210000       1.80930000        6 
C      -2.66930000       0.45700000       1.31330000        6 
C       2.86840000      -0.63930000      -1.74810000        6 
C       1.61610000       1.17900000      -0.56740000        6 
C       1.10770000       0.59500000       0.52870000        6 
C      -1.86750000      -0.54260000      -1.54760000        6 
H      -1.31590000      -0.44030000      -0.24330000        1 
H       3.72100000       0.78630000      -0.34750000        1 
H       3.23460000       1.47760000      -1.93500000        1 
H      -0.57350000       1.94190000       0.61210000        1 
H      -0.07470000       1.25730000       2.18790000        1 
H       2.08900000      -0.67420000      -2.53910000        1 
H       3.84800000      -0.89770000      -2.20260000        1 
H       2.63250000      -1.39340000      -0.96770000        1 
H      -0.02050000      -1.79750000       1.47510000        1 
H      -1.77260000      -2.07820000       1.70580000        1 
H      -0.87270000      -1.04220000       2.88070000        1 
H      -3.44100000      -0.32850000       1.16710000        1 
H      -2.69350000       0.79380000       2.37220000        1 
H      -2.92740000       1.31460000       0.65630000        1 
H       1.07620000       1.98590000      -1.05540000        1 
H       1.66550000      -0.19630000       1.02110000        1 
H      -1.92520000       0.16540000      -2.39970000        1 
H      -2.89200000      -0.84610000      -1.24900000        1 
H      -1.28970000      -1.43980000      -1.85080000        1 
