42
Properties=species:S:1:pos:R:3:Z:I:1 pbc="F F F"
O       1.00540000      -0.29200000       0.09260000        8 
O      -1.74270000      -0.30760000       0.21410000        8 
O      -0.28640000       1.33510000       1.92420000        8 
C      -3.16270000      -0.38320000       0.09840000        6 
C       2.18150000      -0.62490000      -0.64260000        6 
C       0.29800000       0.85160000      -0.37150000        6 
C      -1.10940000       0.43010000      -0.81800000        6 
C       0.23720000       1.89730000       0.75200000        6 
C      -3.63750000      -0.81890000      -1.31030000        6 
C      -3.61700000      -1.45660000       1.10190000        6 
C      -3.81940000       0.95540000       0.50280000        6 
C       3.25180000       0.48670000      -0.55190000        6 
C       2.75880000      -1.88320000       0.02730000        6 
C       1.86730000      -0.97670000      -2.11610000        6 
C       4.07360000       0.77800000       1.91820000        6 
H       0.76800000       1.35520000      -1.24180000        1 
H      -1.00500000      -0.21480000      -1.71710000        1 
H      -1.67130000       1.34170000      -1.11080000        1 
H       1.26560000       2.27250000       0.95090000        1 
H      -0.38930000       2.76030000       0.43160000        1 
H      -4.72970000      -1.02520000      -1.30890000        1 
H      -3.45440000      -0.02470000      -2.06440000        1 
H      -3.10480000      -1.74100000      -1.62770000        1 
H      -3.15510000      -2.43640000       0.85270000        1 
H      -3.30190000      -1.18080000       2.13170000        1 
H      -4.72240000      -1.57620000       1.09270000        1 
H      -4.91700000       0.83150000       0.62800000        1 
H      -3.39300000       1.31680000       1.46320000        1 
H      -3.66770000       1.74000000      -0.26590000        1 
H       3.43410000       0.82470000       0.69160000        1 
H       4.22020000       0.13130000      -0.96580000        1 
H       2.96700000       1.39160000      -1.12540000        1 
H       2.99580000      -1.67880000       1.09400000        1 
H       3.68820000      -2.22150000      -0.48070000        1 
H       2.01870000      -2.71200000      -0.00600000        1 
H       1.04190000      -1.71880000      -2.16490000        1 
H       2.76130000      -1.41320000      -2.61190000        1 
H       1.57400000      -0.08500000      -2.70610000        1 
H       3.38070000       0.65540000       2.77590000        1 
H       4.84080000       1.53920000       2.16840000        1 
H       4.57000000      -0.19040000       1.70250000        1 
H      -0.31310000       2.06770000       2.59300000        1 
