30
Properties=species:S:1:pos:R:3:Z:I:1 pbc="F F F"
C      -1.74920000       0.12760000      -0.15340000        6 
C       0.77430000      -0.70120000       0.47370000        6 
C      -0.74170000      -1.00010000       0.26950000        6 
C      -1.58850000       1.41380000       0.67880000        6 
C      -3.17810000      -0.41520000       0.08530000        6 
C      -1.63040000       0.46630000      -1.65740000        6 
C       1.46130000      -0.00170000      -0.70050000        6 
C       1.10130000      -0.00960000       1.80660000        6 
C       4.12810000      -0.23600000      -0.60830000        6 
H       1.25580000      -1.70280000       0.54170000        1 
H      -1.10190000      -1.45900000       1.21740000        1 
H      -0.81640000      -1.81950000      -0.48020000        1 
H       2.75150000      -0.11050000      -0.56920000        1 
H       1.17510000      -0.48180000      -1.66020000        1 
H       1.21870000       1.07950000      -0.72500000        1 
H       0.89470000       1.07700000       1.77670000        1 
H       2.18220000      -0.13240000       2.03300000        1 
H       0.52660000      -0.46750000       2.63920000        1 
H      -0.65910000       1.95310000       0.40910000        1 
H      -1.58270000       1.17980000       1.76480000        1 
H      -2.42980000       2.11360000       0.48260000        1 
H      -3.34130000      -0.63920000       1.16190000        1 
H      -3.34450000      -1.34940000      -0.49420000        1 
H      -3.94670000       0.32520000      -0.22690000        1 
H      -2.47870000       1.10770000      -1.98110000        1 
H      -0.70900000       1.03130000      -1.88860000        1 
H      -1.64590000      -0.45800000      -2.27400000        1 
H       4.63800000       0.06660000       0.32930000        1 
H       4.30700000      -1.31490000      -0.79490000        1 
H       4.52940000       0.35720000      -1.45550000        1 
