27
Properties=species:S:1:pos:R:3:Z:I:1 pbc="F F F"
O       1.39600000       0.43160000      -0.25210000        8 
O       2.78290000      -0.76700000       1.16140000        8 
C      -1.17730000      -0.95970000       0.08430000        6 
C      -0.42740000      -0.25220000       1.23700000        6 
C       0.50530000       0.87580000       0.77070000        6 
C      -2.14200000      -0.01130000      -0.64280000        6 
C      -1.94710000      -2.17020000       0.62790000        6 
C       3.32400000      -0.87590000      -1.15380000        6 
C       2.49000000      -0.40670000      -0.01080000        6 
C      -0.38450000       3.08530000      -0.35870000        6 
H      -0.43770000      -1.34080000      -0.65390000        1 
H       0.18170000      -1.00050000       1.78900000        1 
H      -1.16040000       0.16980000       1.95880000        1 
H      -0.17740000       1.83930000       0.32970000        1 
H       1.08600000       1.26320000       1.63610000        1 
H      -2.73190000      -0.56920000      -1.40110000        1 
H      -2.84360000       0.46320000       0.07640000        1 
H      -1.57990000       0.77940000      -1.18080000        1 
H      -2.45580000      -2.70740000      -0.20100000        1 
H      -1.24840000      -2.88190000       1.11740000        1 
H      -2.71010000      -1.84870000       1.36930000        1 
H       3.30310000      -1.98470000      -1.20010000        1 
H       2.93070000      -0.46730000      -2.10830000        1 
H       4.37090000      -0.53310000      -1.01780000        1 
H      -0.62890000       4.14660000      -0.14750000        1 
H      -1.00680000       2.72340000      -1.20280000        1 
H       0.68860000       2.99920000      -0.62680000        1 
