28
Properties=species:S:1:pos:R:3:Z:I:1 pbc="F F F"
C      -1.61670000      -0.99830000      -0.13390000        6 
C      -0.33770000      -0.14020000      -0.26630000        6 
C       0.66670000      -0.30300000       0.89090000        6 
C       1.88730000       0.60920000       0.71740000        6 
C      -1.31770000      -2.50350000      -0.14350000        6 
C      -2.45740000      -0.61360000       1.09070000        6 
C       2.74880000       0.16410000      -0.43510000        6 
C       2.98760000       0.95440000      -1.48550000        6 
C      -0.47700000       2.45100000      -0.62470000        6 
H      -2.23550000      -0.78270000      -1.03300000        1 
H       0.17610000      -0.03000000       1.84830000        1 
H       1.00790000      -1.35750000       0.96620000        1 
H      -0.67950000       1.08320000      -0.34610000        1 
H       0.16130000      -0.40100000      -1.22510000        1 
H       1.55320000       1.66340000       0.59420000        1 
H       2.50140000       0.56360000       1.64200000        1 
H      -0.67700000      -2.76410000      -1.01270000        1 
H      -0.80720000      -2.81740000       0.79110000        1 
H      -2.26620000      -3.07540000      -0.22940000        1 
H      -2.63010000       0.48340000       1.11180000        1 
H      -1.95890000      -0.92150000       2.03370000        1 
H      -3.44610000      -1.11780000       1.04170000        1 
H       3.18900000      -0.82850000      -0.40930000        1 
H       2.56280000       1.95160000      -1.54720000        1 
H       3.61330000       0.60060000      -2.29830000        1 
H      -1.15330000       2.71760000      -1.46280000        1 
H       0.08070000       3.35290000      -0.29840000        1 
H      -1.07560000       2.05950000       0.22330000        1 
