42
Properties=species:S:1:pos:R:3:Z:I:1 pbc="F F F"
O      -1.11680000       0.62910000      -0.29000000        8 
O       1.62240000       0.75030000      -0.30640000        8 
O       0.14930000       2.77860000       0.91480000        8 
C       2.68060000       0.12640000      -1.03160000        6 
C      -2.24900000      -0.21020000      -0.50130000        6 
C      -0.42710000       0.43120000       0.93690000        6 
C       0.98620000      -0.09010000       0.64220000        6 
C      -0.38990000       1.75720000       1.70870000        6 
C       2.12100000      -0.84500000      -2.09530000        6 
C       3.70150000      -0.59480000      -0.11670000        6 
C       3.42130000       1.25750000      -1.76500000        6 
C      -2.79130000       0.15980000      -1.89310000        6 
C      -1.87080000      -1.71040000      -0.53210000        6 
C      -3.37170000       0.06410000       0.52720000        6 
C      -1.52320000      -0.90840000       2.94270000        6 
H      -0.96320000      -0.40740000       1.71420000        1 
H       0.88310000      -1.13580000       0.28910000        1 
H       1.57480000      -0.10500000       1.58540000        1 
H       0.21310000       1.63710000       2.63650000        1 
H      -1.42820000       2.02690000       2.00340000        1 
H       2.91830000      -1.14800000      -2.80800000        1 
H       1.72430000      -1.77500000      -1.64020000        1 
H       1.30250000      -0.35690000      -2.66690000        1 
H       4.58900000      -0.92060000      -0.70130000        1 
H       4.04210000       0.08730000       0.69160000        1 
H       3.26210000      -1.50300000       0.34670000        1 
H       2.72530000       1.80010000      -2.44100000        1 
H       4.26390000       0.86110000      -2.37250000        1 
H       3.82850000       1.98850000      -1.03340000        1 
H      -3.07590000       1.23400000      -1.92380000        1 
H      -2.01260000      -0.00990000      -2.66820000        1 
H      -3.68510000      -0.44800000      -2.15410000        1 
H      -2.73000000      -2.32110000      -0.88470000        1 
H      -1.01720000      -1.87600000      -1.22380000        1 
H      -1.59260000      -2.09600000       0.46870000        1 
H      -3.12640000      -0.32430000       1.53530000        1 
H      -3.55800000       1.15650000       0.60730000        1 
H      -4.31650000      -0.43110000       0.21470000        1 
H      -2.52690000      -0.50050000       3.18100000        1 
H      -1.57630000      -2.01540000       2.89240000        1 
H      -0.80490000      -0.60830000       3.73310000        1 
H       0.14430000       3.59600000       1.47740000        1 
