28
Properties=species:S:1:pos:R:3:Z:I:1 pbc="F F F"
C      -1.00240000      -1.25860000       0.74360000        6 
C      -0.03140000      -0.07300000       0.53660000        6 
C       0.80780000      -0.15130000      -0.75200000        6 
C      -2.07460000      -1.33520000      -0.35040000        6 
C      -0.26980000      -2.59930000       0.88880000        6 
C       3.63450000       2.44570000      -0.24790000        6 
C       1.69800000       1.05340000      -0.89210000        6 
C       2.75250000       1.24670000      -0.08730000        6 
C      -3.32250000       0.97880000      -0.15040000        6 
H      -1.53280000      -1.07100000       1.70360000        1 
H       0.64900000      -0.02050000       1.41480000        1 
H      -0.61910000       0.87160000       0.52700000        1 
H       1.43690000      -1.06630000      -0.75940000        1 
H       0.13580000      -0.18310000      -1.63450000        1 
H      -2.64690000      -0.17580000      -0.49840000        1 
H      -2.85440000      -2.07250000      -0.06320000        1 
H      -1.63810000      -1.65260000      -1.32050000        1 
H       0.52860000      -2.52140000       1.65720000        1 
H       0.18280000      -2.91580000      -0.07430000        1 
H      -0.98450000      -3.38630000       1.21140000        1 
H       3.04140000       3.37380000      -0.10630000        1 
H       4.44520000       2.41860000       0.50990000        1 
H       4.08960000       2.44850000      -1.26080000        1 
H       2.98240000       0.52730000       0.69400000        1 
H       1.48660000       1.76700000      -1.68450000        1 
H      -4.11480000       1.03010000      -0.92520000        1 
H      -3.65880000       0.32410000       0.67970000        1 
H      -3.12090000       1.99730000       0.24050000        1 
