30
Properties=species:S:1:pos:R:3:Z:I:1 pbc="F F F"
C      -2.05110000      -1.13950000      -1.24840000        6 
C      -0.88300000      -1.75130000      -0.46330000        6 
C      -1.90000000       1.32080000      -2.08370000        6 
C       2.46640000       0.19820000      -0.74890000        6 
C      -2.20270000       0.34200000      -0.98050000        6 
C       1.30230000      -0.50520000      -0.11380000        6 
C       0.43290000      -1.15980000      -0.90880000        6 
C       1.15380000      -0.39940000       1.35350000        6 
C      -2.61290000       0.77540000       0.22200000        6 
C       1.03580000      -1.46890000       2.13690000        6 
C       2.02850000       1.89930000       2.22210000        6 
H      -0.85490000      -2.84390000      -0.66070000        1 
H      -1.07520000      -1.61740000       0.61900000        1 
H      -2.99360000      -1.65940000      -0.96990000        1 
H      -1.89240000      -1.31780000      -2.33500000        1 
H      -2.56690000       1.12190000      -2.94850000        1 
H      -0.84470000       1.19960000      -2.40620000        1 
H      -2.04870000       2.37330000      -1.75980000        1 
H       2.09890000       0.96590000      -1.46270000        1 
H       3.09790000      -0.53490000      -1.29420000        1 
H       3.09690000       0.70230000       0.01450000        1 
H       0.64660000      -1.21520000      -1.97090000        1 
H       1.31220000       0.81150000       1.93430000        1 
H       0.99450000      -1.34540000       3.21050000        1 
H       0.99590000      -2.46790000       1.72080000        1 
H      -2.72780000       1.83510000       0.42810000        1 
H      -2.84420000       0.07330000       1.01710000        1 
H       1.51740000       1.86590000       3.20620000        1 
H       2.55390000       2.87000000       2.11100000        1 
H       2.76420000       1.07130000       2.15920000        1 
