27
Properties=species:S:1:pos:R:3:Z:I:1 pbc="F F F"
C      -0.67540000      -0.58990000      -0.61480000        6 
C      -0.51920000       0.83120000      -1.22200000        6 
C       0.86090000      -0.54480000      -0.40650000        6 
C       0.94510000       0.47850000      -1.55630000        6 
C      -0.44780000       1.90610000      -0.08330000        6 
C      -1.58950000      -0.77510000       0.62960000        6 
C      -1.09220000      -1.63650000      -1.67980000        6 
C       2.14810000      -0.26750000       1.87970000        6 
C       1.17980000       0.25610000       0.86180000        6 
C       0.55740000       1.46430000       0.99880000        6 
H      -1.16660000       1.08070000      -2.09030000        1 
H       1.42030000      -1.49410000      -0.55360000        1 
H       1.05980000       0.00120000      -2.55340000        1 
H       1.68800000       1.30040000      -1.42860000        1 
H      -1.45180000       2.05090000       0.36780000        1 
H      -0.11860000       2.87670000      -0.51120000        1 
H      -1.33860000      -0.00940000       1.67710000        1 
H      -2.64470000      -0.58670000       0.33920000        1 
H      -1.51320000      -1.82360000       0.98810000        1 
H      -2.16000000      -1.49460000      -1.95150000        1 
H      -0.96440000      -2.66220000      -1.27290000        1 
H      -0.49920000      -1.57190000      -2.61410000        1 
H       2.26690000       0.43820000       2.72930000        1 
H       1.77970000      -1.23840000       2.27160000        1 
H       3.13800000      -0.42110000       1.40200000        1 
H       0.73740000       2.09700000       1.86230000        1 
H      -1.60020000       0.33460000       2.53090000        1 
