28
Properties=species:S:1:pos:R:3:Z:I:1 pbc="F F F"
C      -0.07320000      -0.55860000       0.26300000        6 
C       0.97360000       0.43730000       0.80440000        6 
C       2.41300000      -0.07760000       0.65740000        6 
C      -0.16540000      -1.82250000       1.12790000        6 
C       3.42390000       0.98960000       1.06490000        6 
C      -3.49850000       1.03470000      -0.72100000        6 
C      -1.69540000      -0.06260000      -2.24760000        6 
C      -2.16640000       0.34590000      -0.87260000        6 
C      -1.43070000       0.11770000       0.23870000        6 
H       0.23880000      -0.87230000      -0.75430000        1 
H       2.63530000      -0.40820000      -0.57250000        1 
H       2.56850000      -0.96940000       1.30020000        1 
H       0.88430000       1.38780000       0.23210000        1 
H       0.76600000       0.66450000       1.87390000        1 
H       4.45210000       0.58510000       0.95690000        1 
H       3.26640000       1.28680000       2.12360000        1 
H       3.32460000       1.88280000       0.41250000        1 
H      -0.36050000      -1.56160000       2.19050000        1 
H      -0.98990000      -2.47260000       0.76360000        1 
H       0.77310000      -2.41090000       1.06510000        1 
H      -4.15980000       0.43170000      -0.06320000        1 
H      -3.35260000       2.03800000      -0.26740000        1 
H      -4.00830000       1.16660000      -1.69800000        1 
H      -0.73810000       0.44710000      -2.48640000        1 
H      -2.43160000       0.21420000      -3.03040000        1 
H      -1.55500000      -1.16340000      -2.28780000        1 
H      -1.82850000       0.44280000       1.19810000        1 
H       2.73420000      -1.09280000      -1.27170000        1 
