25
Properties=species:S:1:pos:R:3:Z:I:1 pbc="F F F"
C       1.82570000      -0.24070000      -0.37050000        6 
C       2.50090000       0.63370000      -1.43850000        6 
C       0.30320000      -0.04650000      -0.32490000        6 
C       2.49710000       2.11860000      -1.07630000        6 
C      -2.62120000      -0.12400000       0.15040000        6 
C      -2.20490000      -2.03790000       1.87410000        6 
C      -1.66930000      -1.04470000       0.87570000        6 
C      -0.33880000      -1.00140000       0.65290000        6 
H       3.55730000       0.30450000      -1.54440000        1 
H       2.00410000       0.48880000      -2.42240000        1 
H       2.26550000      -0.02290000       0.62780000        1 
H       2.04390000      -1.30460000      -0.61140000        1 
H       0.07130000       0.99280000      -0.01160000        1 
H      -0.11860000      -0.22410000      -1.33780000        1 
H       3.09980000       2.68090000      -1.82030000        1 
H       1.46470000       2.52490000      -1.09170000        1 
H       2.94240000       2.27510000      -0.07080000        1 
H      -2.33680000       1.07970000       0.40970000        1 
H      -3.67270000      -0.30070000       0.45790000        1 
H      -2.55240000      -0.29270000      -0.94470000        1 
H      -1.94210000      -3.06900000       1.55550000        1 
H      -3.30910000      -1.97350000       1.96590000        1 
H      -1.76080000      -1.84240000       2.87310000        1 
H       0.30300000      -1.68650000       1.20330000        1 
H      -2.35230000       2.11260000       0.41890000        1 
