32
Properties=species:S:1:pos:R:3:Z:I:1 pbc="F F F"
O      -1.52380000      -1.02330000      -1.01610000        8 
C      -1.00260000       0.04860000      -1.77450000        6 
C      -2.52110000      -0.49890000      -0.17140000        6 
C       0.53830000       0.02360000      -1.73450000        6 
C      -1.59500000       1.36760000      -1.27370000        6 
C      -2.27450000       0.98840000       0.00610000        6 
C       2.64420000      -0.03490000      -0.32970000        6 
C       1.11140000       0.05500000      -0.30720000        6 
C       3.26510000       0.12450000       1.06670000        6 
C      -2.51500000      -1.23990000       1.16410000        6 
C       2.98780000      -1.07110000       1.97790000        6 
H      -1.31030000      -0.09510000      -2.83420000        1 
H      -3.51170000      -0.64700000      -0.65680000        1 
H       2.89110000       1.05420000       1.54800000        1 
H       4.36600000       0.22600000       0.95110000        1 
H       2.96040000      -1.00470000      -0.77310000        1 
H       3.04260000       0.77740000      -0.97640000        1 
H       0.81120000       0.99790000       0.19690000        1 
H       0.70180000      -0.80160000       0.26790000        1 
H       0.93280000       0.88590000      -2.31590000        1 
H       0.88350000      -0.90520000      -2.23980000        1 
H      -2.35520000       1.73870000      -1.99600000        1 
H      -0.83780000       2.16590000      -1.11360000        1 
H      -3.38280000       1.63490000       0.16450000        1 
H      -1.59470000       1.18850000       0.86420000        1 
H       1.91010000      -1.12720000       2.23630000        1 
H       3.30140000      -2.01630000       1.48610000        1 
H       3.56250000      -0.95650000       2.92100000        1 
H      -3.29510000      -0.82290000       1.83610000        1 
H      -2.73040000      -2.31630000       0.99590000        1 
H      -1.52280000      -1.14890000       1.65590000        1 
H      -3.93730000       2.43280000       0.17430000        1 
