27
Properties=species:S:1:pos:R:3:Z:I:1 pbc="F F F"
C       1.29920000       0.27890000       0.22200000        6 
C       0.00380000      -0.25610000      -0.44210000        6 
C      -0.88870000       0.85400000      -1.04540000        6 
C       2.21970000      -0.87950000       0.67730000        6 
C      -2.11710000       1.18470000      -0.17930000        6 
C       0.97630000       1.17460000       1.42950000        6 
C      -3.24460000       0.16960000      -0.36210000        6 
C       2.86520000      -1.63040000      -0.48920000        6 
H       1.85520000       0.89760000      -0.51760000        1 
H      -1.84070000       1.23520000       0.89460000        1 
H      -2.50130000       2.18510000      -0.47430000        1 
H      -0.29640000       1.78180000      -1.20110000        1 
H      -1.23160000       0.54390000      -2.05740000        1 
H       0.28320000      -0.93170000      -1.27670000        1 
H      -0.55970000      -0.87480000       0.28860000        1 
H       1.65060000      -1.59740000       1.30780000        1 
H       3.04550000      -0.47060000       1.30030000        1 
H      -2.85850000      -1.03950000       0.00580000        1 
H      -3.57110000       0.14160000      -1.42340000        1 
H      -4.11250000       0.46520000       0.26440000        1 
H       0.42320000       2.08180000       1.11030000        1 
H       0.36930000       0.62010000       2.17700000        1 
H       1.91280000       1.52060000       1.91670000        1 
H       2.11500000      -2.23520000      -1.03810000        1 
H       3.35550000      -0.92020000      -1.18830000        1 
H       3.63740000      -2.32520000      -0.09660000        1 
H      -2.78960000      -1.97420000       0.19750000        1 
