27
Properties=species:S:1:pos:R:3:Z:I:1 pbc="F F F"
C      -1.22140000      -0.32610000       0.17820000        6 
C       1.25830000       0.39750000      -0.39220000        6 
C       0.08000000       0.40880000       0.62850000        6 
C      -0.97830000      -1.84650000       0.04960000        6 
C      -2.30120000      -0.10130000       1.25900000        6 
C      -1.75210000       0.22970000      -1.15920000        6 
C       2.58540000       0.09610000       0.31490000        6 
C       1.36710000       1.73460000      -1.14170000        6 
H       1.11710000      -0.39850000      -1.14990000        1 
H      -0.16790000       1.46170000       0.89220000        1 
H       0.40910000      -0.05310000       1.58680000        1 
H       2.52350000      -1.09110000       0.89210000        1 
H       2.80070000       0.86380000       1.08920000        1 
H       3.42020000       0.07890000      -0.41820000        1 
H       2.18220000       1.68590000      -1.89510000        1 
H       1.58580000       2.56390000      -0.43490000        1 
H       0.42360000       1.96490000      -1.67630000        1 
H      -1.93290000      -2.37740000      -0.15670000        1 
H      -0.55150000      -2.25580000       0.99050000        1 
H      -0.28420000      -2.08490000      -0.78140000        1 
H      -3.24780000      -0.61770000       0.98810000        1 
H      -2.52190000       0.98200000       1.37590000        1 
H      -1.96200000      -0.49530000       2.24160000        1 
H      -1.90370000       1.32840000      -1.09190000        1 
H      -1.05090000       0.01600000      -1.99240000        1 
H      -2.72650000      -0.23890000      -1.41700000        1 
H       2.84910000      -1.92580000       1.22020000        1 
