39
Properties=species:S:1:pos:R:3:Z:I:1 pbc="F F F"
O      -1.30860000      -1.14420000      -0.47880000        8 
O       0.93180000       0.53540000      -0.35630000        8 
O       0.09880000      -2.31310000       2.66300000        8 
C       2.22260000       1.13140000      -0.47350000        6 
C      -2.47810000      -0.32500000      -0.51530000        6 
C      -0.52920000      -1.04920000       0.70770000        6 
C       0.91640000      -0.70900000       0.31900000        6 
C      -0.58290000      -2.39740000       1.44140000        6 
C       2.68500000       1.72030000       0.87730000        6 
C       3.29280000       0.16380000      -1.03430000        6 
C       2.06480000       2.29200000      -1.47050000        6 
C      -3.46660000      -0.65520000       0.62860000        6 
C      -2.12940000       1.18210000      -0.52260000        6 
C      -3.18090000      -0.64690000      -1.84560000        6 
H      -0.87190000      -0.26550000       1.41550000        1 
H       1.29690000      -1.50660000      -0.35660000        1 
H       1.53170000      -0.68750000       1.24160000        1 
H      -0.13000000      -3.19270000       0.80690000        1 
H      -1.64300000      -2.67000000       1.63470000        1 
H       3.11080000       0.78270000       1.70560000        1 
H       3.53440000       2.42210000       0.72980000        1 
H       1.85130000       2.27360000       1.36030000        1 
H       2.92720000      -0.31510000      -1.96790000        1 
H       4.23330000       0.71050000      -1.26290000        1 
H       3.54460000      -0.63100000      -0.30090000        1 
H       1.71570000       1.90920000      -2.45400000        1 
H       3.02670000       2.82830000      -1.62320000        1 
H       1.31100000       3.01980000      -1.09890000        1 
H      -4.42720000      -0.11610000       0.47970000        1 
H      -3.68050000      -1.74490000       0.65010000        1 
H      -3.07570000      -0.35100000       1.62050000        1 
H      -1.39510000       1.40370000      -1.32610000        1 
H      -3.04070000       1.79060000      -0.70890000        1 
H      -1.70670000       1.52030000       0.44470000        1 
H      -4.10980000      -0.04790000      -1.96720000        1 
H      -3.44930000      -1.72470000      -1.88960000        1 
H      -2.50670000      -0.42740000      -2.70170000        1 
H       0.03830000      -3.21390000       3.07500000        1 
H       3.37830000       0.44850000       2.55350000        1 
