39
Properties=species:S:1:pos:R:3:Z:I:1 pbc="F F F"
O      -1.02990000       0.51430000       0.83820000        8 
O       1.57000000      -0.23930000       0.40650000        8 
O      -1.52150000      -0.94890000       3.24750000        8 
C       2.53880000      -0.08550000      -0.62840000        6 
C      -2.25710000       0.78370000       0.15950000        6 
C      -0.69090000      -0.86040000       0.97980000        6 
C       0.53940000      -1.16700000       0.11350000        6 
C      -0.38060000      -1.14830000       2.45760000        6 
C       3.72420000       0.66130000       0.00720000        6 
C       3.07030000      -1.43300000      -1.17930000        6 
C       1.98420000       0.79190000      -1.77300000        6 
C      -2.35930000       2.31570000       0.06150000        6 
C      -3.48210000       0.28130000       0.95870000        6 
C      -2.27480000       0.22100000      -1.28110000        6 
H      -1.49440000      -1.56210000       0.67370000        1 
H       0.17410000      -1.14220000      -1.11370000        1 
H       0.89280000      -2.19850000       0.33350000        1 
H      -0.06480000      -2.20760000       2.57090000        1 
H       0.45910000      -0.50740000       2.81470000        1 
H       4.53320000       0.84130000      -0.73410000        1 
H       4.14450000       0.07010000       0.84940000        1 
H       3.39170000       1.64280000       0.40950000        1 
H       3.93440000      -1.26430000      -1.85780000        1 
H       3.40090000      -2.08650000      -0.34370000        1 
H       2.29490000      -1.96970000      -1.76470000        1 
H       1.48530000       1.69370000      -1.35720000        1 
H       1.25360000       0.24550000      -2.40180000        1 
H       2.80410000       1.12150000      -2.44720000        1 
H      -2.34970000       2.76930000       1.07630000        1 
H      -1.49360000       2.72440000      -0.50370000        1 
H      -3.29450000       2.62640000      -0.45360000        1 
H      -4.42430000       0.63970000       0.49050000        1 
H      -3.53730000      -0.82510000       0.99080000        1 
H      -3.44650000       0.66420000       2.00040000        1 
H      -3.17260000       0.58180000      -1.82820000        1 
H      -1.37350000       0.55720000      -1.83640000        1 
H      -2.31210000      -0.88710000      -1.29460000        1 
H      -1.54380000       0.01610000       3.47920000        1 
H       0.30750000      -1.23050000      -2.12010000        1 
