27
Properties=species:S:1:pos:R:3:Z:I:1 pbc="F F F"
C      -1.30670000      -0.53680000       0.12580000        6 
C       0.18100000      -0.91370000       0.32160000        6 
C       1.17490000       0.03770000      -0.36590000        6 
C      -1.63640000       0.84070000       0.74700000        6 
C       2.61840000      -0.41060000      -0.11160000        6 
C      -1.72420000      -0.61630000      -1.35260000        6 
C       3.61480000       0.52650000      -0.78850000        6 
C      -3.13840000       1.05710000       0.93430000        6 
H      -1.89030000      -1.30920000       0.67480000        1 
H       2.76730000      -1.43900000      -0.50730000        1 
H       2.82140000      -0.42110000       0.98150000        1 
H       0.99030000       0.04940000      -1.46120000        1 
H       1.04570000       1.06680000       0.03100000        1 
H       0.43490000      -0.93950000       1.58900000        1 
H       0.34180000      -1.94590000      -0.06110000        1 
H      -1.15600000       0.91980000       1.74670000        1 
H      -1.23490000       1.65960000       0.11190000        1 
H       3.50490000       1.55830000      -0.39190000        1 
H       4.64940000       0.17710000      -0.58710000        1 
H       3.45070000       0.53600000      -1.88710000        1 
H      -1.36350000      -1.56380000      -1.80650000        1 
H      -1.31520000       0.23880000      -1.93080000        1 
H      -2.83030000      -0.60410000      -1.44170000        1 
H      -3.30940000       2.01780000       1.46430000        1 
H      -3.57720000       0.23730000       1.54190000        1 
H      -3.65420000       1.10780000      -0.04680000        1 
H       0.54130000      -1.33070000       2.47040000        1 
