25
Properties=species:S:1:pos:R:3:Z:I:1 pbc="F F F"
C      -1.11850000      -0.46100000       0.57370000        6 
C      -1.18010000      -0.20550000      -0.94840000        6 
C       1.89550000      -0.06390000      -1.18350000        6 
C      -1.76980000      -1.80770000       0.90920000        6 
C      -1.80460000       0.66610000       1.35960000        6 
C       2.85520000       0.30420000      -0.05940000        6 
C       0.94810000       1.07850000      -1.45370000        6 
C      -0.39390000       1.01550000      -1.36170000        6 
H      -0.05880000      -0.51200000       0.90110000        1 
H       1.37320000      -1.00250000      -0.91320000        1 
H       2.47980000      -0.26310000      -2.10670000        1 
H      -0.82000000      -1.08970000      -1.51700000        1 
H      -2.24120000      -0.05500000      -1.24560000        1 
H       2.18020000       0.58270000       1.04210000        1 
H       3.53680000      -0.54850000       0.14390000        1 
H       3.46590000       1.18710000      -0.34620000        1 
H      -1.24310000      -2.63010000       0.37960000        1 
H      -1.70430000      -2.00540000       2.00050000        1 
H      -2.83930000      -1.81270000       0.60680000        1 
H      -1.75430000       0.45860000       2.44990000        1 
H      -2.87120000       0.75990000       1.06210000        1 
H      -1.29330000       1.63430000       1.17500000        1 
H       1.38800000       2.02020000      -1.77050000        1 
H      -0.96080000       1.90490000      -1.62220000        1 
H       1.93070000       0.84510000       1.92450000        1 
