32
Properties=species:S:1:pos:R:3:Z:I:1 pbc="F F F"
O      -0.74640000       0.25890000       0.37510000        8 
C      -0.77720000      -1.02940000      -0.20020000        6 
C      -1.84590000       0.36720000       1.25250000        6 
C       0.63660000      -1.63750000      -0.24060000        6 
C      -1.73570000      -1.89290000       0.60430000        6 
C      -2.70240000      -0.88660000       1.14060000        6 
C       1.82040000       0.42940000      -1.28990000        6 
C       1.51520000      -1.07660000      -1.37510000        6 
C       2.59710000       0.81270000      -0.02190000        6 
C      -2.63900000       1.63420000       0.93730000        6 
C       3.01120000       2.28100000      -0.05460000        6 
H      -1.23490000      -0.93040000      -1.39470000        1 
H      -1.45370000       0.44470000       2.29100000        1 
H       1.96610000       0.65030000       0.87710000        1 
H       3.50920000       0.18330000       0.06610000        1 
H       0.88210000       1.01830000      -1.36020000        1 
H       2.43410000       0.69690000      -2.17810000        1 
H       2.47720000      -1.63430000      -1.38230000        1 
H       1.01900000      -1.28180000      -2.34860000        1 
H       1.13750000      -1.51120000       0.74270000        1 
H       0.54670000      -2.73270000      -0.41390000        1 
H      -2.23920000      -2.65080000      -0.03410000        1 
H      -1.21380000      -2.39400000       1.45090000        1 
H      -3.11320000      -1.19610000       2.12640000        1 
H      -3.53490000      -0.74960000       0.41380000        1 
H       3.56060000       2.53330000       0.87680000        1 
H       3.67650000       2.47600000      -0.92260000        1 
H       2.11410000       2.93250000      -0.12560000        1 
H      -1.98920000       2.52520000       1.06900000        1 
H      -3.50700000       1.72320000       1.62490000        1 
H      -3.00400000       1.61250000      -0.11200000        1 
H      -1.16730000      -0.97610000      -2.39410000        1 
