25
Properties=species:S:1:pos:R:3:Z:I:1 pbc="F F F"
C      -1.93770000       0.04440000       0.26260000        6 
C       2.59430000      -0.03060000      -0.16790000        6 
C       1.09000000       0.22270000      -0.03520000        6 
C      -2.68470000       0.07980000       1.59810000        6 
C      -2.92370000      -0.04380000      -0.90490000        6 
C       3.36350000       1.27740000      -0.32100000        6 
C      -1.00410000      -1.14790000       0.23230000        6 
C       0.33290000      -1.07380000       0.10100000        6 
H      -1.38520000       1.00170000       0.16250000        1 
H       2.81720000      -0.76810000      -1.20610000        1 
H       2.96630000      -0.56480000       0.73380000        1 
H       0.73110000       0.75940000      -0.94030000        1 
H       0.90330000       0.85080000       0.86330000        1 
H       4.44770000       1.05920000      -0.41700000        1 
H       3.20700000       1.92450000       0.56830000        1 
H       3.02800000       1.81610000      -1.23240000        1 
H      -3.36000000       0.96130000       1.63610000        1 
H      -3.29050000      -0.84190000       1.73680000        1 
H      -1.95980000       0.16220000       2.43630000        1 
H      -3.60220000       0.83600000      -0.90060000        1 
H      -2.37090000      -0.05030000      -1.86880000        1 
H      -3.53620000      -0.96890000      -0.83610000        1 
H       0.88960000      -2.00770000       0.09390000        1 
H      -1.44880000      -2.13560000       0.32340000        1 
H       3.13280000      -1.36220000      -1.91800000        1 
