32
Properties=species:S:1:pos:R:3:Z:I:1 pbc="F F F"
O      -1.52170000      -0.06460000      -0.27560000        8 
C      -0.75530000      -0.65730000       0.75210000        6 
C      -2.87050000      -0.06340000       0.13800000        6 
C       0.49050000       0.19250000       1.04800000        6 
C      -1.62980000      -0.82210000       1.98760000        6 
C      -3.00540000      -0.89500000       1.40530000        6 
C       2.68890000       1.07640000       0.16180000        6 
C       1.43550000       0.24920000      -0.16000000        6 
C       3.60290000       1.26280000      -1.05910000        6 
C      -3.75860000      -0.58670000      -0.98780000        6 
C       4.31020000      -0.02800000      -1.47100000        6 
H      -0.43480000      -1.66760000       0.41040000        1 
H      -3.16530000       0.98630000       0.35970000        1 
H       3.01860000       1.65820000      -1.91830000        1 
H       4.37800000       2.01790000      -0.80470000        1 
H       3.25810000       0.59650000       0.98810000        1 
H       2.37420000       2.08440000       0.51070000        1 
H       1.73190000      -0.78600000      -0.43330000        1 
H       0.90440000       0.70670000      -1.02330000        1 
H       0.17650000       1.22440000       1.32110000        1 
H       1.03360000      -0.24900000       1.91290000        1 
H      -1.55880000       0.06490000       2.65690000        1 
H      -1.37340000      -1.74260000       2.55620000        1 
H      -3.25250000      -1.95540000       1.17230000        1 
H      -3.76830000      -0.47470000       2.09640000        1 
H       4.85640000      -0.46480000      -0.60810000        1 
H       5.04220000       0.19370000      -2.27600000        1 
H       3.58200000      -0.76820000      -1.86190000        1 
H      -3.63520000       0.19650000      -2.04500000        1 
H      -4.82240000      -0.58790000      -0.66760000        1 
H      -3.45980000      -1.61860000      -1.27160000        1 
H      -3.87210000       0.92160000      -2.61400000        1 
