27
Properties=species:S:1:pos:R:3:Z:I:1 pbc="F F F"
C       0.81580000       0.46040000       0.15110000        6 
C      -1.58540000      -0.43070000      -0.26180000        6 
C      -0.49080000       0.58650000      -0.67550000        6 
C       1.69330000      -0.70080000      -0.37950000        6 
C      -2.35570000       0.04410000       0.98080000        6 
C      -2.56660000      -0.65600000      -1.41970000        6 
C       1.58530000       1.79060000       0.10960000        6 
C       2.81070000      -1.08890000       0.58940000        6 
H      -1.12460000      -1.41270000      -0.02390000        1 
H       0.52810000       0.23370000       1.36220000        1 
H       1.07060000      -1.60460000      -0.54360000        1 
H       2.13840000      -0.42830000      -1.36160000        1 
H      -0.91240000       1.61220000      -0.58180000        1 
H      -0.23640000       0.46080000      -1.75200000        1 
H       3.56230000      -0.27790000       0.67460000        1 
H       3.32810000      -1.99550000       0.21030000        1 
H       2.39420000      -1.31710000       1.59330000        1 
H      -2.85940000       1.01500000       0.78430000        1 
H      -3.12750000      -0.70460000       1.26040000        1 
H      -1.67730000       0.16490000       1.84900000        1 
H      -3.35010000      -1.38680000      -1.12540000        1 
H      -3.05590000       0.29880000      -1.70990000        1 
H      -2.03070000      -1.06790000      -2.30150000        1 
H       2.48140000       1.74850000       0.76130000        1 
H       0.94500000       2.61490000       0.48930000        1 
H       1.90010000       2.03060000      -0.92870000        1 
H       0.11950000       0.01090000       2.24940000        1 
