28
Properties=species:S:1:pos:R:3:Z:I:1 pbc="F F F"
C       0.18400000      -0.57310000       0.02790000        6 
C       1.10270000       0.56770000       0.52570000        6 
C       2.60270000       0.34850000       0.25390000        6 
C       0.31700000      -0.85500000      -1.47580000        6 
C       3.18750000      -0.83970000       1.01680000        6 
C      -3.51740000       0.62650000       0.63230000        6 
C      -1.90290000       1.40550000      -1.21300000        6 
C      -2.15710000       0.52700000      -0.01320000        6 
C      -1.25350000      -0.35940000       0.47800000        6 
H       0.54910000      -1.63350000       0.61990000        1 
H       3.14640000       1.26360000       0.57460000        1 
H       2.79020000       0.22470000      -0.83360000        1 
H       0.95610000       0.69920000       1.62050000        1 
H       0.81490000       1.52410000       0.04830000        1 
H       4.29470000      -0.82100000       0.93440000        1 
H       2.91290000      -0.78830000       2.09180000        1 
H       2.83120000      -1.79740000       0.58500000        1 
H       0.39270000       0.08550000      -2.05900000        1 
H      -0.54420000      -1.45460000      -1.84050000        1 
H       1.23850000      -1.44470000      -1.66410000        1 
H      -3.68190000       1.66480000       0.98950000        1 
H      -4.30030000       0.37380000      -0.11330000        1 
H      -3.62920000      -0.05900000       1.49950000        1 
H      -1.00540000       2.03500000      -1.07180000        1 
H      -1.80450000       0.78580000      -2.12650000        1 
H      -2.75910000       2.09300000      -1.38070000        1 
H      -1.55870000      -0.98500000       1.31280000        1 
H       0.79370000      -2.61390000       0.58060000        1 
