39
Properties=species:S:1:pos:R:3:Z:I:1 pbc="F F F"
O      -1.60940000      -0.22970000       0.30930000        8 
O       1.10690000      -0.31780000      -0.49070000        8 
O      -2.06200000       0.58790000       3.01990000        8 
C       2.44530000      -0.68990000      -0.81530000        6 
C      -2.17190000       0.81850000      -0.48420000        6 
C      -0.55700000       0.15230000       1.18880000        6 
C       0.70860000      -0.64010000       0.82880000        6 
C      -0.96440000      -0.18570000       2.63010000        6 
C       3.45800000       0.28090000      -0.16910000        6 
C       2.56610000      -0.55480000      -2.34270000        6 
C       2.78200000      -2.15450000      -0.43970000        6 
C      -2.83970000       1.91610000       0.37650000        6 
C      -1.14290000       1.44200000      -1.45640000        6 
C      -3.27340000       0.16180000      -1.33460000        6 
H      -0.29830000       1.23150000       1.15470000        1 
H       1.49600000      -0.39500000       1.57240000        1 
H       0.47530000      -1.72600000       0.89200000        1 
H      -1.26670000      -1.42780000       2.70860000        1 
H      -0.11550000       0.01950000       3.32050000        1 
H       4.47230000       0.13280000      -0.59900000        1 
H       3.54320000       0.12080000       0.92490000        1 
H       3.14850000       1.33290000      -0.34870000        1 
H       1.84210000      -1.23080000      -2.84690000        1 
H       3.59000000      -0.81180000      -2.69160000        1 
H       2.33800000       0.48680000      -2.65730000        1 
H       3.76920000      -2.44860000      -0.85730000        1 
H       2.00910000      -2.84300000      -0.84350000        1 
H       2.83850000      -2.28730000       0.66140000        1 
H      -3.57110000       1.46380000       1.07920000        1 
H      -3.38580000       2.63700000      -0.26970000        1 
H      -2.09870000       2.50080000       0.95780000        1 
H      -0.34620000       1.99850000      -0.92290000        1 
H      -0.67290000       0.65310000      -2.08100000        1 
H      -1.64240000       2.16430000      -2.13780000        1 
H      -3.77330000       0.90560000      -1.99300000        1 
H      -2.84240000      -0.63940000      -1.97330000        1 
H      -4.04300000      -0.30110000      -0.67950000        1 
H      -2.33680000       0.23940000       3.90680000        1 
H      -1.57540000      -2.36310000       2.90270000        1 
