25
Properties=species:S:1:pos:R:3:Z:I:1 pbc="F F F"
C      -1.67110000      -0.51490000      -0.38020000        6 
C      -0.32660000      -0.23310000       0.32630000        6 
C       0.50230000       0.85390000      -0.38010000        6 
C       1.87410000       1.06090000       0.27700000        6 
C      -2.31760000      -1.77500000       0.20950000        6 
C      -2.64090000       0.67030000      -0.26080000        6 
C       2.81990000      -0.07080000      -0.03470000        6 
C       3.92240000       0.11050000      -0.76770000        6 
H      -1.48050000      -0.70720000      -1.45950000        1 
H       0.63640000       0.59830000      -1.45440000        1 
H      -0.04290000       1.81910000      -0.32410000        1 
H      -0.54420000       0.11960000       1.55100000        1 
H       0.26410000      -1.17370000       0.34580000        1 
H       1.76230000       1.14920000       1.37900000        1 
H       2.29300000       2.02530000      -0.08690000        1 
H      -2.52650000      -1.63780000       1.29250000        1 
H      -3.27100000      -2.00060000      -0.31450000        1 
H      -1.64430000      -2.64950000       0.08160000        1 
H      -3.62670000       0.40590000      -0.69980000        1 
H      -2.25920000       1.54890000      -0.81990000        1 
H      -2.78990000       0.95160000       0.80370000        1 
H       2.60980000      -1.06130000       0.35640000        1 
H       4.58400000      -0.72640000      -0.96690000        1 
H       4.17400000       1.08450000      -1.17590000        1 
H      -0.30100000       0.15220000       2.50270000        1 
