25
Properties=species:S:1:pos:R:3:Z:I:1 pbc="F F F"
C       1.21370000      -0.62280000      -0.58960000        6 
C       2.63180000      -0.44540000      -0.02750000        6 
C       0.31480000       0.58740000      -0.30940000        6 
C       2.68170000      -0.54480000       1.49630000        6 
C      -2.30070000       0.21470000       1.15670000        6 
C      -3.44860000       0.07090000      -1.17790000        6 
C      -2.20130000       0.24380000      -0.34970000        6 
C      -1.02200000       0.40810000      -0.98960000        6 
H       3.11810000       0.69270000      -0.40140000        1 
H       3.27960000      -1.24420000      -0.44950000        1 
H       0.75170000      -1.54270000      -0.16790000        1 
H       1.29740000      -0.76100000      -1.69020000        1 
H       0.20850000       0.72890000       0.78350000        1 
H       0.78770000       1.50640000      -0.71720000        1 
H       3.74040000      -0.52880000       1.83000000        1 
H       2.16120000       0.31610000       1.96330000        1 
H       2.21630000      -1.49260000       1.84090000        1 
H      -3.34260000       0.03480000       1.49370000        1 
H      -1.97150000       1.18840000       1.57660000        1 
H      -1.66630000      -0.60190000       1.56200000        1 
H      -3.59880000       0.96400000      -1.82080000        1 
H      -4.35060000      -0.05490000      -0.54360000        1 
H      -3.34930000      -0.82790000      -1.82290000        1 
H      -1.01390000       0.40310000      -2.07720000        1 
H       3.86260000       1.30750000      -0.56860000        1 
