24
Properties=species:S:1:pos:R:3:Z:I:1 pbc="F F F"
O       1.35270000       0.08500000      -0.25370000        8 
O       2.77830000       1.79280000       0.37520000        8 
C      -1.73870000      -0.54060000      -0.15410000        6 
C      -0.86910000       0.14230000      -1.23700000        6 
C       0.32260000       0.95430000      -0.71320000        6 
C      -2.45670000       0.47310000       0.74690000        6 
C      -0.95860000      -1.56220000       0.68370000        6 
C       3.57230000      -0.42440000       0.75820000        6 
C       2.55280000       0.55510000       0.28490000        6 
H      -2.52880000      -1.10360000      -0.69870000        1 
H      -1.62450000       0.93570000      -1.92360000        1 
H      -0.49370000      -0.62890000      -1.94490000        1 
H       0.00970000       1.64310000       0.09820000        1 
H       0.71910000       1.57010000      -1.54910000        1 
H      -2.98550000       1.23190000       0.13180000        1 
H      -3.21150000      -0.04920000       1.37290000        1 
H      -1.74390000       0.98730000       1.42470000        1 
H      -0.24890000      -1.05680000       1.37190000        1 
H      -1.66390000      -2.16350000       1.29610000        1 
H      -0.39680000      -2.25580000       0.02260000        1 
H       3.13380000      -1.05570000       1.55880000        1 
H       4.46500000       0.10100000       1.15940000        1 
H       3.88340000      -1.07190000      -0.08770000        1 
H      -1.86890000       1.44050000      -2.72340000        1 
