28
Properties=species:S:1:pos:R:3:Z:I:1 pbc="F F F"
C       0.75030000      -0.21690000      -0.95930000        6 
C       1.33470000       1.13890000      -0.46870000        6 
C       1.23710000       1.43170000       1.04300000        6 
C       1.82820000      -1.31030000      -1.01470000        6 
C       2.07610000       0.48990000       1.90300000        6 
C      -2.77830000      -0.78310000       0.60750000        6 
C      -2.04170000       0.91710000      -1.22330000        6 
C      -1.69740000      -0.19510000      -0.26170000        6 
C      -0.44630000      -0.69570000      -0.15400000        6 
H       0.42810000      -0.08070000      -2.01460000        1 
H       0.17950000       1.40710000       1.38140000        1 
H       1.60390000       2.46730000       1.21290000        1 
H       0.80010000       1.95700000      -0.99560000        1 
H       2.39550000       1.23700000      -0.78830000        1 
H       2.13610000       0.89070000       2.93670000        1 
H       3.10680000       0.40270000       1.49830000        1 
H       1.60430000      -0.51210000       1.95660000        1 
H       2.66860000      -0.98980000      -1.66680000        1 
H       1.40080000      -2.24130000      -1.44550000        1 
H       2.22920000      -1.54470000      -0.00920000        1 
H      -2.89000000      -2.01870000       0.36700000        1 
H      -2.51520000      -0.64400000       1.67770000        1 
H      -3.76190000      -0.30200000       0.42660000        1 
H      -1.78520000       0.62220000      -2.26180000        1 
H      -3.12630000       1.15050000      -1.20070000        1 
H      -1.49760000       1.84200000      -0.94760000        1 
H      -0.28100000      -1.51080000       0.54770000        1 
H      -2.95850000      -2.90880000      -0.14640000        1 
