25
Properties=species:S:1:pos:R:3:Z:I:1 pbc="F F F"
C      -1.74090000      -0.15110000      -0.25490000        6 
C      -0.30410000       0.39040000      -0.08520000        6 
C       0.74570000      -0.47290000      -0.80940000        6 
C       2.12790000       0.19380000      -0.85040000        6 
C      -2.75050000       0.87010000       0.28150000        6 
C      -1.93420000      -1.49930000       0.45560000        6 
C       2.75450000       0.26180000       0.51860000        6 
C       3.86740000      -0.41280000       0.82180000        6 
H      -1.95020000      -0.29020000      -1.33850000        1 
H       0.83780000      -1.46360000      -0.31470000        1 
H       0.41500000      -0.64340000      -1.85720000        1 
H      -0.25980000       1.42000000      -0.50420000        1 
H      -0.05790000       0.45430000       0.99700000        1 
H       2.04530000       1.22190000      -1.26340000        1 
H       2.77420000      -0.38640000      -1.54550000        1 
H      -2.62350000       2.01480000      -0.36650000        1 
H      -3.78820000       0.50370000       0.12890000        1 
H      -2.58810000       1.05030000       1.36620000        1 
H      -1.31290000      -2.28550000      -0.02040000        1 
H      -1.66130000      -1.42030000       1.52990000        1 
H      -2.99370000      -1.82510000       0.38010000        1 
H       2.29610000       0.88590000       1.27950000        1 
H       4.35960000      -1.04570000       0.08980000        1 
H       4.29350000      -0.33520000       1.81680000        1 
H      -2.55140000       2.96450000      -0.45530000        1 
