28
Properties=species:S:1:pos:R:3:Z:I:1 pbc="F F F"
C       0.61210000       0.80310000      -0.11600000        6 
C       1.50550000      -0.02450000       0.82890000        6 
C       1.32070000      -1.53510000       0.61860000        6 
C       0.96250000       2.28920000      -0.01640000        6 
C       2.24700000      -2.33560000       1.52920000        6 
C      -3.21100000      -0.04380000      -0.11470000        6 
C      -1.45840000      -0.37160000      -1.98320000        6 
C      -1.78680000       0.09440000      -0.58770000        6 
C      -0.85180000       0.61890000       0.23780000        6 
H       0.83070000       0.49180000      -1.15830000        1 
H       0.27040000      -1.82450000       0.83830000        1 
H       1.54320000      -1.79630000      -0.43890000        1 
H       1.28010000       0.23590000       1.88740000        1 
H       2.57130000       0.23030000       0.63520000        1 
H       2.03000000      -2.10910000       2.59490000        1 
H       2.08970000      -3.42130000       1.35770000        1 
H       3.30860000      -2.09190000       1.31080000        1 
H       0.18550000       2.98470000      -0.82830000        1 
H       0.82190000       2.66040000       1.02200000        1 
H       2.01860000       2.45700000      -0.31780000        1 
H      -3.34900000       0.32620000       0.92390000        1 
H      -3.88060000       0.53700000      -0.78320000        1 
H      -3.50870000      -1.11280000      -0.14610000        1 
H      -0.69910000      -1.18100000      -1.94500000        1 
H      -1.07530000       0.47770000      -2.58730000        1 
H      -2.36200000      -0.77260000      -2.48950000        1 
H      -1.14950000       0.93030000       1.23630000        1 
H      -0.26570000       3.48330000      -1.50840000        1 
