16
Properties=species:S:1:pos:R:3:Z:I:1 pbc="F F F"
O       0.04130000       1.73290000       1.47830000        8 
C      -1.64940000      -0.38710000      -0.87490000        6 
C      -1.74850000       0.73860000       0.16920000        6 
C       2.00210000      -0.13580000       0.11590000        6 
C       0.52390000      -0.02100000      -0.08190000        6 
C      -0.19490000      -0.74940000      -0.91800000        6 
C      -0.34240000       0.90210000       0.61310000        6 
H      -1.98130000      -0.03220000      -1.87410000        1 
H      -2.25050000      -1.26900000      -0.56600000        1 
H      -2.12110000       1.68000000      -0.28870000        1 
H      -2.39120000       0.43820000       1.02450000        1 
H       2.24250000      -0.42570000       1.32220000        1 
H       2.43200000      -0.92580000      -0.53620000        1 
H       2.48480000       0.83330000      -0.12880000        1 
H       0.21750000      -1.51810000      -1.55930000        1 
H       2.73510000      -0.86110000       2.10480000        1 
