27
Properties=species:S:1:pos:R:3:Z:I:1 pbc="F F F"
C       0.92780000       0.03380000       0.10460000        6 
C      -1.76930000       0.01840000       0.51970000        6 
C      -0.31100000      -0.05520000       1.06510000        6 
C       2.16780000      -0.42760000       0.90300000        6 
C       1.19410000       1.48530000      -0.35480000        6 
C       0.79680000      -0.88110000      -1.12680000        6 
C      -2.06650000       1.22690000      -0.37230000        6 
C      -2.26200000      -1.28860000      -0.12250000        6 
H      -2.40410000       0.15300000       1.42510000        1 
H      -0.20560000       0.74750000       1.82900000        1 
H      -0.24030000      -1.00150000       1.64680000        1 
H      -3.16560000       1.35510000      -0.47190000        1 
H      -1.65530000       1.08630000      -1.39190000        1 
H      -1.65700000       2.15390000       0.08180000        1 
H      -3.37190000      -1.28040000      -0.17530000        1 
H      -1.95830000      -2.16590000       0.48670000        1 
H      -1.88620000      -1.41540000      -1.15550000        1 
H       3.26140000      -0.34190000       0.16600000        1 
H       2.05880000      -1.48520000       1.22820000        1 
H       2.30990000       0.20300000       1.80770000        1 
H       2.18220000       1.56080000      -0.85850000        1 
H       0.44530000       1.83700000      -1.08780000        1 
H       1.19810000       2.18070000       0.51180000        1 
H       0.51970000      -1.91270000      -0.82120000        1 
H       1.76000000      -0.93360000      -1.67940000        1 
H       0.04440000      -0.48950000      -1.83950000        1 
H       4.08660000      -0.36280000      -0.31780000        1 
