27
Properties=species:S:1:pos:R:3:Z:I:1 pbc="F F F"
C      -1.28350000       0.07510000      -0.13610000        6 
C      -0.54520000      -1.08360000       0.54910000        6 
C      -1.49730000       0.02530000      -2.72490000        6 
C       2.11290000       0.48620000       2.92630000        6 
C      -2.00760000      -0.39760000      -1.37370000        6 
C       1.44080000       0.05090000       1.64590000        6 
C       0.26000000      -0.59950000       1.72670000        6 
C       2.09680000       0.32850000       0.33470000        6 
C      -3.09920000      -1.17150000      -1.26740000        6 
C       3.23510000       1.01310000       0.21270000        6 
H       0.10250000      -1.63170000      -0.16830000        1 
H      -1.29700000      -1.81210000       0.92260000        1 
H      -0.56100000       0.87150000      -0.41420000        1 
H      -2.01310000       0.52900000       0.57030000        1 
H      -1.51460000       1.28650000      -2.80380000        1 
H      -0.45310000      -0.32990000      -2.85200000        1 
H      -2.11330000      -0.38830000      -3.55210000        1 
H       1.53450000       0.19920000       3.83070000        1 
H       2.22400000       1.59080000       2.93290000        1 
H       3.11530000       0.01450000       3.00090000        1 
H      -0.16100000      -0.81000000       2.70340000        1 
H       1.65150000      -0.03340000      -0.58150000        1 
H       3.76120000       1.41860000       1.06560000        1 
H       3.65890000       1.17810000      -0.76960000        1 
H      -3.47780000      -1.46780000      -0.29380000        1 
H      -3.63240000      -1.51520000      -2.14850000        1 
H      -1.53750000       2.17350000      -3.33580000        1 
