27
Properties=species:S:1:pos:R:3:Z:I:1 pbc="F F F"
C      -0.85400000       0.29490000      -0.33630000        6 
C       0.51590000       1.03230000      -0.38410000        6 
C       1.64350000       0.19550000      -1.02070000        6 
C      -1.17340000      -0.18280000       1.10190000        6 
C       2.05720000      -1.04530000      -0.21200000        6 
C      -1.96840000       1.20990000      -0.86940000        6 
C       2.78250000      -0.69100000       1.08610000        6 
C      -2.31720000      -1.19670000       1.15340000        6 
H      -0.81790000      -0.59130000      -1.00840000        1 
H       1.17780000      -1.68600000       0.00560000        1 
H       2.75010000      -1.64920000      -0.83710000        1 
H       1.32000000      -0.13010000      -2.03350000        1 
H       2.53410000       0.84550000      -1.16570000        1 
H       0.43210000       1.95700000      -0.99690000        1 
H       0.82020000       1.38500000       0.62450000        1 
H      -0.28010000      -0.67010000       1.54380000        1 
H      -1.42450000       0.68710000       1.74760000        1 
H       3.66180000      -0.04610000       0.87490000        1 
H       2.10530000      -0.16820000       1.79140000        1 
H       3.13810000      -1.62230000       1.57510000        1 
H      -1.67040000       1.61270000      -2.09230000        1 
H      -2.93400000       0.66750000      -0.92880000        1 
H      -2.09020000       2.10130000      -0.21720000        1 
H      -3.28040000      -0.72290000       0.87400000        1 
H      -2.41590000      -1.58810000       2.18790000        1 
H      -2.11130000      -2.05030000       0.47320000        1 
H      -1.60120000       2.05190000      -2.93730000        1 
