28
Properties=species:S:1:pos:R:3:Z:I:1 pbc="F F F"
O      -0.61310000      -0.08360000       1.08200000        8 
C       0.69330000      -0.08730000       0.49880000        6 
C      -1.66120000       0.51460000       0.32690000        6 
C       1.07010000       1.17300000      -0.32860000        6 
C       0.97650000      -1.41070000      -0.24950000        6 
C      -2.09690000      -0.35680000      -0.86030000        6 
C      -2.84780000       0.71070000       1.27180000        6 
C       2.56850000       1.27830000      -0.61370000        6 
C       0.59740000      -2.63720000       0.58070000        6 
H       1.38900000      -0.08510000       1.36700000        1 
H      -1.40200000       1.53080000      -0.03400000        1 
H       0.53100000       1.18140000      -1.29950000        1 
H       0.78540000       2.08010000       0.24690000        1 
H       2.06220000      -1.48540000      -0.47000000        1 
H       0.44670000      -1.44760000      -1.22060000        1 
H       2.82230000       2.45470000      -1.15970000        1 
H       3.15480000       1.19280000       0.32570000        1 
H       2.89100000       0.49290000      -1.32800000        1 
H       1.13530000      -2.62620000       1.55250000        1 
H      -0.49620000      -2.66350000       0.76790000        1 
H       0.87960000      -3.55930000       0.03010000        1 
H      -1.37450000      -0.26630000      -1.69450000        1 
H      -2.18830000      -1.41990000      -0.55360000        1 
H      -3.07780000      -0.01640000      -1.25610000        1 
H      -3.68350000       1.22470000       0.74980000        1 
H      -3.20570000      -0.26930000       1.65480000        1 
H      -2.54050000       1.33810000       2.13570000        1 
H       3.18450000       3.24250000      -1.52250000        1 
