28
Properties=species:S:1:pos:R:3:Z:I:1 pbc="F F F"
C      -0.35800000      -0.85400000       1.06780000        6 
C      -1.21320000       0.37840000       0.70230000        6 
C      -1.89230000       0.25020000      -0.66890000        6 
C       0.35890000      -0.65990000       2.40920000        6 
C      -2.79670000       1.44680000      -0.94570000        6 
C       1.86510000       0.79880000      -0.41430000        6 
C       2.45670000      -1.38070000      -1.64160000        6 
C       1.58800000      -0.66580000      -0.63580000        6 
C       0.59100000      -1.34900000      -0.01780000        6 
H      -1.07910000      -1.68610000       1.23560000        1 
H      -1.12650000       0.19630000      -1.47120000        1 
H      -2.50170000      -0.67910000      -0.69960000        1 
H      -0.51970000       1.46770000       0.76490000        1 
H      -2.00750000       0.48120000       1.47510000        1 
H      -3.27040000       1.33160000      -1.94330000        1 
H      -2.20460000       2.38670000      -0.94010000        1 
H      -3.59730000       1.51220000      -0.17840000        1 
H       0.97520000       0.25890000       2.42080000        1 
H       1.00760000      -1.53440000       2.63090000        1 
H      -0.39040000      -0.57340000       3.22500000        1 
H       2.78310000       1.10720000      -0.95850000        1 
H       1.03480000       1.40920000      -0.82010000        1 
H       2.03550000       1.02160000       0.65440000        1 
H       2.18280000      -2.45110000      -1.75850000        1 
H       2.35880000      -0.88760000      -2.63150000        1 
H       3.51720000      -1.32950000      -1.31690000        1 
H       0.44860000      -2.39110000      -0.29380000        1 
H      -0.24580000       2.39500000       0.74980000        1 
