27
Properties=species:S:1:pos:R:3:Z:I:1 pbc="F F F"
C      -1.34560000      -0.64600000       0.11330000        6 
C       0.02450000       0.02990000       0.36060000        6 
C       1.20700000      -0.87900000      -0.02080000        6 
C      -2.49310000       0.09860000       0.83790000        6 
C       2.55880000      -0.30900000       0.43260000        6 
C      -1.63990000      -0.81750000      -1.38690000        6 
C       2.96680000       0.93870000      -0.34850000        6 
C      -2.71090000       1.53980000       0.36790000        6 
H      -1.31230000      -1.66500000       0.56000000        1 
H       3.46270000      -1.21420000       0.24530000        1 
H       2.53360000      -0.07770000       1.51970000        1 
H       1.22940000      -1.04180000      -1.11940000        1 
H       1.07800000      -1.86950000       0.46650000        1 
H       0.11000000       0.28510000       1.44000000        1 
H       0.08420000       0.97430000      -0.22070000        1 
H      -2.28690000       0.11040000       1.93050000        1 
H      -3.44050000      -0.46630000       0.69710000        1 
H       2.94750000       0.73640000      -1.44030000        1 
H       2.29090000       1.78740000      -0.11540000        1 
H       3.99920000       1.22830000      -0.06170000        1 
H      -0.95170000      -1.56590000      -1.83160000        1 
H      -1.51620000       0.14230000      -1.93130000        1 
H      -2.67640000      -1.18680000      -1.53850000        1 
H      -1.80960000       2.15880000       0.55590000        1 
H      -2.96770000       1.57120000      -0.71080000        1 
H      -3.55580000       1.98450000       0.93480000        1 
H       4.21430000      -1.84700000       0.26390000        1 
