25
Properties=species:S:1:pos:R:3:Z:I:1 pbc="F F F"
C      -1.56560000      -0.16070000       0.51930000        6 
C      -0.45480000      -1.24010000       0.48130000        6 
C       0.41560000      -1.28260000      -0.79210000        6 
C      -1.01800000       1.26700000       0.63670000        6 
C      -2.55190000      -0.27770000      -0.64950000        6 
C       3.30370000       1.22040000      -0.17170000        6 
C       1.36370000      -0.11990000      -0.90500000        6 
C       2.37400000       0.05450000      -0.04170000        6 
H      -2.22740000      -0.37810000       1.57570000        1 
H      -0.94710000      -2.23180000       0.58220000        1 
H       0.19290000      -1.13160000       1.37790000        1 
H      -0.22460000      -1.32700000      -1.69660000        1 
H       1.01300000      -2.22020000      -0.78360000        1 
H      -1.84090000       1.95850000       0.91640000        1 
H      -0.59040000       1.61670000      -0.32510000        1 
H      -0.23970000       1.32060000       1.42710000        1 
H      -2.90660000      -1.32520000      -0.75080000        1 
H      -3.43450000       0.36930000      -0.45970000        1 
H      -2.08470000       0.04450000      -1.60370000        1 
H       3.81960000       1.18630000      -1.15440000        1 
H       4.06510000       1.18430000       0.63530000        1 
H       2.73370000       2.16960000      -0.08550000        1 
H       2.52950000      -0.65240000       0.76850000        1 
H       1.22950000       0.57950000      -1.72600000        1 
H      -2.95390000      -0.62390000       2.22520000        1 
