26
Properties=species:S:1:pos:R:3:Z:I:1 pbc="F F F"
O       2.93730000      -0.55770000       0.79130000        8 
C      -1.46790000      -0.70870000       0.16490000        6 
C       0.98200000      -0.03310000      -0.44970000        6 
C      -0.02730000      -0.42470000       0.65710000        6 
C      -2.10460000       0.51990000      -0.49980000        6 
C      -2.33690000      -1.16570000       1.34380000        6 
C       1.16260000      -1.13980000      -1.49840000        6 
C       2.89410000       1.67710000       0.04690000        6 
C       2.31860000       0.29870000       0.17560000        6 
H      -1.45260000      -1.54130000      -0.57010000        1 
H       0.61430000       0.87640000      -0.97060000        1 
H       0.35380000      -1.33060000       1.17990000        1 
H      -0.06310000       0.39440000       1.41030000        1 
H      -2.02030000       1.57090000       0.29690000        1 
H      -1.60500000       0.74760000      -1.46360000        1 
H      -3.17530000       0.32680000      -0.72510000        1 
H      -2.40890000      -0.36560000       2.11190000        1 
H      -3.36040000      -1.41910000       0.99320000        1 
H      -1.90270000      -2.07470000       1.81230000        1 
H       1.98520000      -0.87410000      -2.19680000        1 
H       1.40540000      -2.10900000      -1.01210000        1 
H       0.24070000      -1.25710000      -2.10460000        1 
H       2.19870000       2.41410000       0.50010000        1 
H       3.87480000       1.74380000       0.56470000        1 
H       3.03830000       1.92140000      -1.02630000        1 
H      -2.08090000       2.51010000       0.46820000        1 
