27
Properties=species:S:1:pos:R:3:Z:I:1 pbc="F F F"
C      -0.99870000      -0.53520000      -0.44470000        6 
C       1.47630000       0.05500000       0.21520000        6 
C       0.42580000      -0.14230000      -0.91940000        6 
C      -1.66580000       0.51130000       0.47680000        6 
C       2.76620000      -0.71760000      -0.09300000        6 
C       1.80260000       1.54060000       0.42700000        6 
C      -1.01380000      -1.92340000       0.21280000        6 
C      -2.01960000       1.80490000      -0.25850000        6 
H       1.09190000      -0.33720000       1.17900000        1 
H      -1.62800000      -0.62680000      -1.35820000        1 
H      -1.02010000       0.74210000       1.34930000        1 
H      -2.61370000       0.09000000       0.87800000        1 
H       0.76560000      -0.93590000      -1.62190000        1 
H       0.36100000       0.76870000      -1.55240000        1 
H      -1.10850000       2.32370000      -0.61840000        1 
H      -2.68320000       1.58950000      -1.12260000        1 
H      -2.55510000       2.48790000       0.43420000        1 
H       2.54710000      -1.80320000      -0.18320000        1 
H       3.50270000      -0.58420000       0.72830000        1 
H       3.21850000      -0.36070000      -1.04330000        1 
H       2.22580000       1.98580000      -0.49920000        1 
H       0.89100000       2.10370000       0.71130000        1 
H       2.54180000       1.65810000       1.24810000        1 
H      -2.26330000      -2.32500000       0.36760000        1 
H      -0.52990000      -1.90920000       1.21100000        1 
H      -0.49420000      -2.66500000      -0.43070000        1 
H      -3.02240000      -2.79540000       0.70690000        1 
