27
Properties=species:S:1:pos:R:3:Z:I:1 pbc="F F F"
C      -1.02340000      -0.12080000       0.01870000        6 
C      -0.53000000       1.34650000       0.14730000        6 
C       0.31110000      -0.50880000       0.70760000        6 
C       0.35020000       0.89900000       1.33110000        6 
C       0.46580000       1.69120000      -1.01420000        6 
C      -2.25540000      -0.40810000       0.91360000        6 
C      -1.31300000      -0.68670000      -1.40050000        6 
C       2.40360000      -1.65750000      -0.41730000        6 
C       1.43810000      -0.51350000      -0.33330000        6 
C       1.51980000       0.57430000      -1.15620000        6 
H      -1.29640000       2.11630000       0.38130000        1 
H       0.28420000      -1.35900000       1.42290000        1 
H      -0.26060000       0.96430000       2.46870000        1 
H       1.35560000       1.37640000       1.40130000        1 
H      -0.08860000       1.81310000      -1.96830000        1 
H       0.97930000       2.65000000      -0.78920000        1 
H      -2.43150000      -1.50330000       0.97420000        1 
H      -3.15820000       0.07100000       0.47810000        1 
H      -2.14530000      -0.03060000       1.94890000        1 
H      -1.53680000      -1.77220000      -1.32790000        1 
H      -2.20120000      -0.17520000      -1.82820000        1 
H      -0.49320000      -0.58100000      -2.13310000        1 
H       2.93360000      -1.76430000       0.55190000        1 
H       3.15500000      -1.49780000      -1.21980000        1 
H       1.84660000      -2.59320000      -0.63150000        1 
H       2.29340000       0.65190000      -1.91360000        1 
H      -0.60270000       1.01780000       3.38720000        1 
