28
Properties=species:S:1:pos:R:3:Z:I:1 pbc="F F F"
C      -0.05960000       0.34970000       1.12810000        6 
C       1.38730000       0.42040000       0.60070000        6 
C       1.68710000      -0.69850000      -0.40770000        6 
C      -0.26070000       1.35300000       2.26790000        6 
C       3.13530000      -0.63580000      -0.88010000        6 
C      -2.88530000       0.26590000      -1.56390000        6 
C      -2.15750000      -1.58440000       0.11930000        6 
C      -1.98680000      -0.19460000      -0.44490000        6 
C      -1.04560000       0.65900000       0.01640000        6 
H      -0.21990000      -0.66140000       1.55700000        1 
H       1.02300000      -0.60080000      -1.29310000        1 
H       1.50430000      -1.68870000       0.06350000        1 
H       2.09030000       0.32010000       1.45750000        1 
H       1.56850000       1.41060000       0.12570000        1 
H       3.37220000       0.52740000      -1.46100000        1 
H       3.82830000      -0.76660000      -0.02180000        1 
H       3.32280000      -1.44650000      -1.61540000        1 
H      -0.06540000       2.39040000       1.91970000        1 
H      -1.30290000       1.29230000       2.64890000        1 
H       0.42760000       1.12230000       3.10890000        1 
H      -3.45290000       1.16510000      -1.24320000        1 
H      -3.61410000      -0.51810000      -1.85690000        1 
H      -2.27340000       0.52150000      -2.45490000        1 
H      -1.22130000      -2.16570000      -0.01680000        1 
H      -2.40930000      -1.52580000       1.19920000        1 
H      -2.97550000      -2.13440000      -0.39050000        1 
H      -0.97180000       1.64420000      -0.43970000        1 
H       3.55530000       1.17930000      -2.12320000        1 
