39
Properties=species:S:1:pos:R:3:Z:I:1 pbc="F F F"
O      -1.24970000       0.31240000       0.33720000        8 
O       1.42720000       0.17680000      -0.37340000        8 
O      -1.33000000      -0.90410000       2.80740000        8 
C       2.84960000       0.27260000      -0.44580000        6 
C      -2.51100000       0.25610000      -0.33940000        6 
C      -0.52650000      -0.90140000       0.51380000        6 
C       0.94350000      -0.53480000       0.75330000        6 
C      -1.06840000      -1.72480000       1.69960000        6 
C       3.46910000      -1.06760000      -0.89960000        6 
C       3.49980000       0.74920000       0.87710000        6 
C       3.15270000       1.32540000      -1.52550000        6 
C      -2.63150000       1.58130000      -1.10840000        6 
C      -3.64690000       0.21390000       0.69970000        6 
C      -2.69570000      -0.89430000      -1.36410000        6 
H      -0.51350000      -1.53750000      -0.39410000        1 
H       1.00670000       0.11160000       1.65570000        1 
H       1.51470000      -1.46990000       0.93330000        1 
H      -0.35790000      -2.54030000       1.97000000        1 
H      -2.00570000      -2.23440000       1.40300000        1 
H       2.92540000      -1.46120000      -1.78510000        1 
H       3.43430000      -1.83160000      -0.09660000        1 
H       4.53820000      -0.93290000      -1.17300000        1 
H       4.57900000       0.96830000       0.72630000        1 
H       3.43030000      -0.02940000       1.66600000        1 
H       3.00020000       1.67250000       1.24100000        1 
H       4.24780000       1.45880000      -1.66390000        1 
H       2.71210000       2.30560000      -1.24140000        1 
H       2.71030000       1.01960000      -2.49840000        1 
H      -2.52100000       2.60040000      -0.27430000        1 
H      -3.60860000       1.66040000      -1.63330000        1 
H      -1.81790000       1.66360000      -1.86130000        1 
H      -3.49690000       1.00270000       1.46790000        1 
H      -3.69310000      -0.76550000       1.21290000        1 
H      -4.63320000       0.37880000       0.21390000        1 
H      -2.72590000      -1.88500000      -0.86450000        1 
H      -1.88140000      -0.88210000      -2.12030000        1 
H      -3.66010000      -0.77980000      -1.90490000        1 
H      -0.48420000      -0.83680000       3.32210000        1 
H      -2.38200000       3.48350000       0.06670000        1 
