19
Properties=species:S:1:pos:R:3:Z:I:1 pbc="F F F"
O      -0.91300000       0.21220000      -1.94660000        8 
C      -0.43270000      -0.00560000      -0.63970000        6 
C       1.10550000       0.19360000      -0.68760000        6 
C      -1.09240000       1.01060000       0.31520000        6 
C      -0.78920000      -1.44270000      -0.20510000        6 
C       1.83450000       0.04280000       0.65210000        6 
H       1.32670000       1.20760000      -1.08800000        1 
H       1.54300000      -0.53520000      -1.40510000        1 
H       1.68350000      -0.96810000       1.08150000        1 
H       1.50330000       0.81530000       1.37550000        1 
H       2.92410000       0.18090000       0.48860000        1 
H      -0.79160000       0.74870000       1.57510000        1 
H      -0.76650000       2.04390000       0.06930000        1 
H      -2.19890000       0.96580000       0.22470000        1 
H      -0.27880000      -2.18240000      -0.85830000        1 
H      -0.49790000      -1.63180000       0.84890000        1 
H      -1.88480000      -1.61050000      -0.28280000        1 
H      -1.89800000       0.08250000      -1.94560000        1 
H      -0.37690000       0.87260000       2.42770000        1 
