27
Properties=species:S:1:pos:R:3:Z:I:1 pbc="F F F"
C       1.41010000       1.65160000      -0.29910000        6 
C       0.02470000       1.15060000       0.13350000        6 
C       2.87280000       0.15200000       1.25970000        6 
C      -1.96110000      -1.79640000      -1.42040000        6 
C       2.48750000       0.59990000      -0.12720000        6 
C      -1.59730000      -0.67200000      -0.48410000        6 
C      -0.46340000       0.01030000      -0.72560000        6 
C      -2.48080000      -0.31930000       0.65720000        6 
C       3.12000000       0.09720000      -1.19970000        6 
C      -3.21650000      -1.21880000       1.30730000        6 
H       0.05620000       0.83770000       1.19900000        1 
H      -0.69030000       1.99620000       0.04430000        1 
H       1.35260000       2.00170000      -1.35400000        1 
H       1.68010000       2.53660000       0.31630000        1 
H       3.73610000      -0.54750000       1.24560000        1 
H       3.15180000       1.03550000       1.87100000        1 
H       2.01870000      -0.36700000       1.74080000        1 
H      -2.98290000      -2.18340000      -1.23080000        1 
H      -1.93800000      -1.43480000      -2.47080000        1 
H      -1.23340000      -2.62770000      -1.30820000        1 
H       0.14540000      -0.28370000      -1.57430000        1 
H      -2.52160000       0.97440000       1.11340000        1 
H      -3.82960000      -0.90310000       2.14050000        1 
H      -3.19700000      -2.26930000       1.05000000        1 
H       3.90260000      -0.64770000      -1.09210000        1 
H       2.86080000       0.41750000      -2.20420000        1 
H      -2.70740000       1.80960000       1.41190000        1 
