25
Properties=species:S:1:pos:R:3:Z:I:1 pbc="F F F"
C      -1.12390000       1.46700000      -0.56790000        6 
C       0.20810000       0.77360000      -0.20120000        6 
C       0.05070000      -0.26570000       0.91670000        6 
C      -2.10220000       0.50360000      -1.25790000        6 
C      -0.85480000       2.67280000      -1.47790000        6 
C       0.99280000      -3.14030000       0.57180000        6 
C       1.40490000      -0.78240000       1.33550000        6 
C       1.82180000      -2.05150000       1.18770000        6 
H      -1.60230000       1.84780000       0.36180000        1 
H       0.64150000       0.28590000      -1.10280000        1 
H       0.93050000       1.54750000       0.14300000        1 
H      -0.61180000      -1.08570000       0.57730000        1 
H      -0.42420000       0.20710000       1.80240000        1 
H      -1.63050000       0.03480000      -2.14800000        1 
H      -3.01330000       1.04940000      -1.58420000        1 
H      -2.43000000      -0.29210000      -0.55830000        1 
H      -1.80600000       3.19390000      -1.71890000        1 
H      -0.18850000       3.40000000      -0.96660000        1 
H      -0.37270000       2.34840000      -2.42530000        1 
H       0.07570000      -3.30970000       1.17440000        1 
H       1.57680000      -4.08390000       0.54730000        1 
H       0.71730000      -2.86800000      -0.46900000        1 
H       2.82270000      -2.30180000       1.52480000        1 
H       2.26620000       0.10710000       1.89390000        1 
H       2.65120000       0.74230000       2.44140000        1 
