27
Properties=species:S:1:pos:R:3:Z:I:1 pbc="F F F"
C      -0.84930000      -0.32360000      -1.04270000        6 
C       0.12220000      -0.58720000       0.13630000        6 
C       0.94710000       0.63930000       0.57370000        6 
C      -1.89810000       0.78040000      -0.77420000        6 
C       1.85290000       0.33640000       1.77780000        6 
C      -0.08970000      -0.02920000      -2.34410000        6 
C       3.04190000      -0.55400000       1.41670000        6 
C      -2.77410000       0.49020000       0.44430000        6 
H      -1.48200000      -1.40220000      -1.23590000        1 
H       2.24820000       1.29880000       2.16980000        1 
H       1.26360000      -0.13950000       2.59150000        1 
H       1.56770000       1.01180000      -0.26850000        1 
H       0.25960000       1.45560000       0.87720000        1 
H      -0.45490000      -0.97170000       1.00380000        1 
H       0.81000000      -1.40500000      -0.16510000        1 
H      -2.56730000       0.85370000      -1.65930000        1 
H      -1.41050000       1.77090000      -0.65450000        1 
H       3.72220000      -0.63190000       2.29070000        1 
H       2.70340000      -1.57700000       1.15280000        1 
H       3.60940000      -0.12010000       0.56610000        1 
H       0.67560000      -0.81190000      -2.53190000        1 
H      -0.79630000      -0.03020000      -3.20100000        1 
H       0.40700000       0.96270000      -2.30230000        1 
H      -3.60150000       1.22950000       0.48840000        1 
H      -3.21290000      -0.52770000       0.37510000        1 
H      -2.18560000       0.57900000       1.38100000        1 
H      -1.90840000      -2.29700000      -1.06580000        1 
