25
Properties=species:S:1:pos:R:3:Z:I:1 pbc="F F F"
C      -2.32560000      -0.07780000       0.48000000        6 
C       2.04140000       0.09540000      -0.70800000        6 
C       1.54930000       0.13210000       0.74320000        6 
C      -2.69200000       1.01930000      -0.52690000        6 
C      -3.17020000      -1.33190000       0.22990000        6 
C       3.53810000      -0.18800000      -0.77040000        6 
C      -0.85310000      -0.40780000       0.39630000        6 
C       0.08300000       0.45950000       0.81300000        6 
H      -2.55420000       0.28690000       1.50610000        1 
H       1.50350000      -0.69630000      -1.27340000        1 
H       1.84150000       1.07480000      -1.19480000        1 
H       2.11160000       0.91300000       1.29980000        1 
H       1.73510000      -0.84610000       1.23880000        1 
H       4.20570000       0.75580000      -0.13000000        1 
H       3.87060000      -0.20340000      -1.82970000        1 
H       3.76380000      -1.17430000      -0.31170000        1 
H      -2.45800000       0.69280000      -1.56330000        1 
H      -2.12740000       1.95050000      -0.30890000        1 
H      -3.77580000       1.25390000      -0.46040000        1 
H      -4.25030000      -1.09390000       0.33550000        1 
H      -2.98910000      -1.73130000      -0.79160000        1 
H      -2.91560000      -2.11760000       0.97330000        1 
H      -0.21470000       1.41530000       1.23580000        1 
H      -0.54470000      -1.37660000       0.00980000        1 
H       4.62720000       1.19580000       0.60760000        1 
