27
Properties=species:S:1:pos:R:3:Z:I:1 pbc="F F F"
C      -1.33890000       0.48590000      -0.18490000        6 
C       1.26750000       0.32480000       0.11980000        6 
C      -0.12740000       0.51260000       0.78610000        6 
C      -1.56930000      -0.88210000      -0.87350000        6 
C       2.12750000      -0.65510000       0.92700000        6 
C       2.00720000       1.66380000      -0.02230000        6 
C      -1.25670000       1.60560000      -1.23160000        6 
C      -1.87670000      -2.00880000       0.11360000        6 
H       1.16190000      -0.10510000      -0.89650000        1 
H      -2.24310000       0.70020000       0.42840000        1 
H      -2.44220000      -0.79240000      -1.55700000        1 
H      -0.70030000      -1.17200000      -1.49900000        1 
H      -0.29400000      -0.25860000       1.56790000        1 
H      -0.15170000       1.47350000       1.34690000        1 
H      -0.97180000      -2.28140000       0.69410000        1 
H      -2.68970000      -1.70910000       0.80840000        1 
H      -2.20580000      -2.90970000      -0.44600000        1 
H       1.53310000      -1.83420000       0.98050000        1 
H       3.11770000      -0.79170000       0.44180000        1 
H       2.28160000      -0.28080000       1.96210000        1 
H       2.20240000       2.11210000       0.97570000        1 
H       1.41090000       2.38040000      -0.62260000        1 
H       2.97860000       1.51170000      -0.53980000        1 
H      -0.43410000       1.41760000      -1.95310000        1 
H      -2.21000000       1.66630000      -1.79890000        1 
H      -1.09300000       2.58600000      -0.73580000        1 
H       1.51630000      -2.75960000       1.20870000        1 
