25
Properties=species:S:1:pos:R:3:Z:I:1 pbc="F F F"
C       1.70500000      -0.59140000       0.09180000        6 
C       0.35790000      -0.43680000      -0.64970000        6 
C      -0.36050000       0.87710000      -0.31260000        6 
C       2.74770000       0.42650000      -0.39470000        6 
C       2.24430000      -2.01610000      -0.09090000        6 
C      -2.99390000       0.91890000       1.20380000        6 
C      -1.72320000       0.90440000      -0.96170000        6 
C      -2.88920000       0.92780000      -0.29260000        6 
H       1.53950000      -0.43190000       1.18050000        1 
H       0.52180000      -0.50170000      -1.74860000        1 
H      -0.30920000      -1.27870000      -0.35740000        1 
H      -0.42030000       0.99250000       0.78920000        1 
H       0.21620000       1.73790000      -0.70950000        1 
H       2.88520000       0.35310000      -1.49490000        1 
H       2.43800000       1.45950000      -0.13490000        1 
H       3.72530000       0.24140000       0.09960000        1 
H       3.19610000      -2.14250000       0.46810000        1 
H       1.51640000      -2.75680000       0.30380000        1 
H       2.42780000      -2.23060000      -1.16590000        1 
H      -2.43980000      -0.11720000       1.66920000        1 
H      -2.51500000       1.82730000       1.62600000        1 
H      -4.06300000       0.91320000       1.50250000        1 
H      -3.81170000       0.94230000      -0.86590000        1 
H      -1.75890000       0.89870000      -2.04760000        1 
H      -2.23660000      -0.91690000       2.29260000        1 
