5
Properties=species:S:1:pos:R:3:Z:I:1 pbc="F F F"
C      -0.47430000      -0.04300000      -0.26390000        6 
H      -1.09070000      -0.86320000       0.15830000        1 
H      -0.98980000       0.92640000      -0.10490000        1 
H       1.66090000       0.01980000       0.33330000        1 
H       0.89380000      -0.04000000      -0.12280000        1 
