25
Properties=species:S:1:pos:R:3:Z:I:1 pbc="F F F"
O      -2.68750000       3.38350000       0.11190000        8 
C      -1.29500000       0.34970000      -0.55320000        6 
C      -0.77730000      -1.04090000      -0.11060000        6 
C       0.23330000      -1.01680000       1.04880000        6 
C      -2.06000000       1.06630000       0.56830000        6 
C      -2.19980000       0.20030000      -1.78240000        6 
C       3.92240000      -0.16510000       0.17830000        6 
C       1.49310000      -0.27330000       0.68640000        6 
C       2.66660000      -0.90480000       0.53180000        6 
H      -0.43620000       0.98670000      -0.85440000        1 
H      -0.29510000      -1.54470000      -0.97770000        1 
H      -1.64130000      -1.67250000       0.19280000        1 
H      -0.21530000      -0.55880000       1.95390000        1 
H       0.47030000      -2.07010000       1.31700000        1 
H      -2.57180000       2.13480000       0.13110000        1 
H      -2.87050000       0.41960000       0.96760000        1 
H      -1.37350000       1.34520000       1.39390000        1 
H      -3.09230000      -0.41630000      -1.54040000        1 
H      -2.53810000       1.19760000      -2.13640000        1 
H      -1.64330000      -0.28490000      -2.61260000        1 
H       4.31950000      -0.55700000      -0.78090000        1 
H       3.74560000       0.92680000       0.07170000        1 
H       4.67860000      -0.32770000       0.97410000        1 
H       2.72790000      -1.98200000       0.65750000        1 
H       1.43970000       0.80450000       0.56320000        1 
