6
Properties=species:S:1:pos:R:3:Z:I:1 pbc="F F F"
O       2.05360000      -0.01880000      -0.00480000        8 
C      -0.44830000       0.00540000       0.00170000        6 
H       0.84770000      -0.05100000      -0.02490000        1 
H      -0.86180000      -0.59550000      -0.83410000        1 
H      -0.81640000      -0.40040000       0.96640000        1 
H      -0.77480000       1.06030000      -0.10440000        1 
