27
Properties=species:S:1:pos:R:3:Z:I:1 pbc="F F F"
O      -1.11790000       0.81850000       3.47480000        8 
C      -0.99970000      -0.19590000      -0.02040000        6 
C      -0.62110000       1.29740000       0.17980000        6 
C       0.33900000      -0.51220000       0.69640000        6 
C       0.25430000       0.86850000       1.37430000        6 
C       0.38020000       1.76070000      -0.93470000        6 
C      -1.20450000      -0.72400000      -1.46850000        6 
C      -2.23240000      -0.60800000       0.82350000        6 
C       2.54400000      -1.45780000      -0.40240000        6 
C       1.49370000      -0.39220000      -0.30660000        6 
C       1.51840000       0.73080000      -1.08440000        6 
H      -1.44960000       1.99890000       0.41690000        1 
H       0.35450000      -1.39070000       1.37710000        1 
H      -0.36500000       0.84340000       2.44150000        1 
H       1.21870000       1.41530000       1.49570000        1 
H       0.81390000       2.74480000      -0.65680000        1 
H      -0.15310000       1.87990000      -1.90100000        1 
H      -0.37350000      -0.52900000      -2.16960000        1 
H      -2.11530000      -0.26220000      -1.90490000        1 
H      -1.34880000      -1.82500000      -1.44430000        1 
H      -3.15530000      -0.17880000       0.37830000        1 
H      -2.32850000      -1.71460000       0.83700000        1 
H      -2.17960000      -0.26500000       1.87560000        1 
H       3.30490000      -1.21130000      -1.17330000        1 
H       3.05140000      -1.56440000       0.57880000        1 
H       2.06500000      -2.42260000      -0.67010000        1 
H       2.30620000       0.89550000      -1.81280000        1 
