25
Properties=species:S:1:pos:R:3:Z:I:1 pbc="F F F"
O      -2.99720000      -1.47970000      -1.23120000        8 
C      -1.55620000      -0.56310000       0.55930000        6 
C      -0.02960000      -0.73380000       0.39110000        6 
C       0.49260000      -0.14780000      -0.92780000        6 
C      -2.05240000      -1.40670000       1.74030000        6 
C      -1.95120000       0.90680000       0.76780000        6 
C       2.74970000       1.89300000      -0.94610000        6 
C       1.95370000      -0.48540000      -1.10400000        6 
C       2.95220000       0.41570000      -1.11660000        6 
H      -2.10840000      -0.96820000      -0.43410000        1 
H       0.50140000      -0.25710000       1.24510000        1 
H       0.21170000      -1.82030000       0.40790000        1 
H      -0.06780000      -0.58730000      -1.78050000        1 
H       0.32280000       0.94630000      -0.94540000        1 
H      -1.57210000      -1.07700000       2.68680000        1 
H      -1.81720000      -2.47920000       1.57190000        1 
H      -3.15440000      -1.31260000       1.84400000        1 
H      -1.74260000       1.50220000      -0.14410000        1 
H      -3.04080000       0.98630000       0.96910000        1 
H      -1.39720000       1.34550000       1.62530000        1 
H       2.12580000       2.29130000      -1.77370000        1 
H       2.26260000       2.10140000       0.02990000        1 
H       3.73260000       2.40830000      -0.96760000        1 
H       3.96860000       0.05530000      -1.24640000        1 
H       2.21320000      -1.53390000      -1.22120000        1 
