32
Properties=species:S:1:pos:R:3:Z:I:1 pbc="F F F"
O       1.48260000       0.38930000       0.70280000        8 
O      -2.31370000      -3.13990000       0.32770000        8 
C       0.97290000       0.18400000      -0.59680000        6 
C       2.84160000       0.75460000       0.58380000        6 
C       0.03870000      -1.03930000      -0.62000000        6 
C       2.14170000       0.01020000      -1.55340000        6 
C       3.22360000       0.80500000      -0.89260000        6 
C      -2.19330000       0.12710000      -0.16250000        6 
C      -1.16670000      -0.90500000       0.32510000        6 
C      -3.44500000       0.11100000       0.72190000        6 
C       3.69870000      -0.25040000       1.35540000        6 
C      -4.46550000       1.14400000       0.25250000        6 
H       0.40880000       1.09200000      -0.90250000        1 
H       2.98540000       1.75940000       1.03820000        1 
H      -3.16360000       0.33580000       1.77390000        1 
H      -3.91460000      -0.89640000       0.69050000        1 
H      -1.74690000       1.14370000      -0.13240000        1 
H      -2.48270000      -0.10520000      -1.21090000        1 
H      -1.71600000      -2.00830000       0.38920000        1 
H      -0.82240000      -0.64330000       1.34930000        1 
H       0.61590000      -1.93790000      -0.30980000        1 
H      -0.32160000      -1.21620000      -1.65720000        1 
H       1.90650000       0.39740000      -2.56890000        1 
H       2.45670000      -1.05540000      -1.62070000        1 
H       4.23080000       0.38360000      -1.10670000        1 
H       3.18680000       1.85700000      -1.25390000        1 
H      -5.36000000       1.10790000       0.90950000        1 
H      -4.03090000       2.16520000       0.30020000        1 
H      -4.78170000       0.92790000      -0.79020000        1 
H       3.57920000      -1.26950000       0.92890000        1 
H       4.76930000       0.04220000       1.30890000        1 
H       3.38540000      -0.27060000       2.42070000        1 
