32
Properties=species:S:1:pos:R:3:Z:I:1 pbc="F F F"
O      -2.27090000       0.05770000      -1.17550000        8 
O       3.11120000      -0.02910000       2.40240000        8 
C      -1.40370000       0.61490000      -0.20840000        6 
C      -3.04160000      -0.94970000      -0.55750000        6 
C       0.05390000       0.36820000      -0.64480000        6 
C      -1.71910000       0.00350000       1.15590000        6 
C      -2.45670000      -1.25240000       0.81320000        6 
C       2.48640000       1.12870000      -0.41610000        6 
C       1.05050000       1.26370000       0.11380000        6 
C       3.12560000      -0.21690000      -0.04570000        6 
C      -4.49850000      -0.48910000      -0.46670000        6 
C       4.59130000      -0.26350000      -0.46570000        6 
H      -1.59050000       1.71100000      -0.17140000        1 
H      -3.00380000      -1.86710000      -1.18470000        1 
H       3.05820000      -0.38910000       1.17450000        1 
H       2.58980000      -1.04750000      -0.55150000        1 
H       3.09370000       1.94720000       0.02890000        1 
H       2.49700000       1.26320000      -1.52010000        1 
H       0.74140000       2.32490000      -0.00810000        1 
H       1.03450000       1.03540000       1.20050000        1 
H       0.30380000      -0.70430000      -0.49870000        1 
H       0.13780000       0.59000000      -1.73160000        1 
H      -0.82130000      -0.21700000       1.77180000        1 
H      -2.38910000       0.68490000       1.72600000        1 
H      -3.22550000      -1.50190000       1.57760000        1 
H      -1.73590000      -2.09650000       0.73330000        1 
H       5.02350000      -1.24900000      -0.19260000        1 
H       4.68270000      -0.12610000      -1.56430000        1 
H       5.16650000       0.53180000       0.05410000        1 
H      -5.12720000      -1.28910000      -0.02080000        1 
H      -4.88470000      -0.26470000      -1.48350000        1 
H      -4.57930000       0.42770000       0.15580000        1 
