27
Properties=species:S:1:pos:R:3:Z:I:1 pbc="F F F"
O      -3.25670000      -2.79130000      -1.06920000        8 
C      -1.02590000      -0.53880000      -0.01310000        6 
C       0.14120000       0.46060000      -0.21840000        6 
C       1.33710000      -0.15760000      -0.96640000        6 
C      -2.12160000       0.05780000       0.90320000        6 
C       2.53660000       0.80020000      -1.05310000        6 
C      -1.65600000      -0.94440000      -1.35600000        6 
C       3.29870000       0.91850000       0.26720000        6 
C      -1.69310000       0.15620000       2.36920000        6 
H      -0.63250000      -1.46320000       0.46560000        1 
H       2.20140000       1.80760000      -1.38320000        1 
H       3.23980000       0.41290000      -1.82220000        1 
H       1.64690000      -1.10710000      -0.47730000        1 
H       1.03150000      -0.39570000      -2.00660000        1 
H       0.49630000       0.80360000       0.77210000        1 
H      -0.22140000       1.35410000      -0.77300000        1 
H      -2.42140000       1.06460000       0.53800000        1 
H      -3.02480000      -0.59030000       0.87160000        1 
H       4.21500000       1.52550000       0.10960000        1 
H       2.68180000       1.42300000       1.03850000        1 
H       3.60090000      -0.08560000       0.63340000        1 
H      -2.65250000      -1.69590000      -1.16400000        1 
H      -0.93680000      -1.51990000      -1.97360000        1 
H      -1.98920000      -0.04740000      -1.92080000        1 
H      -0.92470000       0.94310000       2.51000000        1 
H      -2.57200000       0.42770000       2.99130000        1 
H      -1.29830000      -0.81820000       2.72740000        1 
