25
Properties=species:S:1:pos:R:3:Z:I:1 pbc="F F F"
O       3.36600000       1.64420000      -1.55820000        8 
C      -1.90860000      -0.18220000      -0.29680000        6 
C       2.65120000      -0.23410000      -0.17620000        6 
C       1.13250000      -0.40010000      -0.31820000        6 
C      -2.75900000       0.43090000      -1.41210000        6 
C      -2.79860000      -0.72320000       0.82490000        6 
C       3.11970000      -0.39020000       1.27000000        6 
C      -0.96700000       0.86520000       0.26040000        6 
C       0.37530000       0.77400000       0.25350000        6 
H      -1.35700000      -1.04150000      -0.73140000        1 
H       2.99740000       0.86940000      -0.60670000        1 
H       3.15340000      -1.01070000      -0.79300000        1 
H       0.89240000      -0.48440000      -1.40010000        1 
H       0.81450000      -1.33810000       0.18740000        1 
H       4.22470000      -0.29230000       1.31180000        1 
H       2.83740000      -1.39050000       1.66180000        1 
H       2.67340000       0.39530000       1.91460000        1 
H      -3.36760000       1.27710000      -1.02560000        1 
H      -3.44120000      -0.33520000      -1.83880000        1 
H      -2.10320000       0.80390000      -2.22800000        1 
H      -3.48190000      -1.50450000       0.42860000        1 
H      -3.40750000       0.09130000       1.27400000        1 
H      -2.17120000      -1.18190000       1.61910000        1 
H       0.93540000       1.60160000       0.68050000        1 
H      -1.41040000       1.75590000       0.69830000        1 
