5
Properties=species:S:1:pos:R:3:Z:I:1 pbc="F F F"
O      -0.10290000       0.63840000       0.30080000        8 
O      -1.11540000       0.15190000      -0.38630000        8 
O       1.93520000      -0.38260000       0.01710000        8 
H       0.77020000       0.15830000      -0.11860000        1 
H      -1.48700000      -0.56610000       0.18690000        1 
