25
Properties=species:S:1:pos:R:3:Z:I:1 pbc="F F F"
O      -2.04740000       1.18170000      -2.12730000        8 
C      -1.83000000      -0.17870000      -0.04790000        6 
C      -0.39990000      -0.76220000      -0.08680000        6 
C       0.68230000       0.32390000      -0.19080000        6 
C       2.06870000      -0.29850000      -0.38380000        6 
C      -2.09950000       0.59680000       1.25020000        6 
C      -2.86110000      -1.30320000      -0.20590000        6 
C       3.11590000       0.77730000      -0.48260000        6 
C       4.11810000       0.87350000       0.39590000        6 
H      -1.97070000       0.57670000      -0.97810000        1 
H       0.45650000       0.99110000      -1.05190000        1 
H       0.69380000       0.93270000       0.73850000        1 
H      -0.21990000      -1.38270000       0.81910000        1 
H      -0.31090000      -1.42700000      -0.97470000        1 
H       2.28550000      -0.98870000       0.46190000        1 
H       2.08650000      -0.89040000      -1.32420000        1 
H      -1.46380000       1.50400000       1.30300000        1 
H      -1.90080000      -0.04100000       2.13820000        1 
H      -3.15730000       0.93430000       1.28290000        1 
H      -3.88960000      -0.88340000      -0.21330000        1 
H      -2.77600000      -2.03320000       0.62790000        1 
H      -2.70400000      -1.83570000      -1.16800000        1 
H       3.05550000       1.49540000      -1.29540000        1 
H       4.85580000       1.66240000       0.29160000        1 
H       4.21230000       0.17480000       1.22150000        1 
