29
Properties=species:S:1:pos:R:3:Z:I:1 pbc="F F F"
O      -0.61030000       0.03670000       1.45470000        8 
O       1.68230000       2.45250000       1.62870000        8 
C       2.06610000       0.25710000       0.65840000        6 
C      -2.56710000      -0.36010000      -0.91610000        6 
C       1.01560000      -0.46930000      -0.21380000        6 
C      -1.47000000      -1.27020000      -0.31760000        6 
C       2.45860000      -0.58460000       1.88230000        6 
C       3.31480000       0.57690000      -0.17240000        6 
C      -1.99580000       0.63910000      -1.93120000        6 
C      -3.38540000       0.36340000       0.16230000        6 
C      -0.37020000      -0.51780000       0.39210000        6 
H       1.61000000       1.30680000       1.04030000        1 
H      -3.27040000      -1.02370000      -1.46690000        1 
H       0.92900000       0.04950000      -1.19290000        1 
H       1.35840000      -1.50730000      -0.41790000        1 
H      -1.03100000      -1.87540000      -1.14100000        1 
H      -1.92810000      -1.99220000       0.39280000        1 
H       3.19760000      -0.03350000       2.50200000        1 
H       2.90740000      -1.55090000       1.56630000        1 
H       1.57450000      -0.79510000       2.51810000        1 
H       4.06390000       1.11080000       0.45050000        1 
H       3.77320000      -0.35540000      -0.56730000        1 
H       3.04850000       1.23620000      -1.02580000        1 
H      -1.41610000       0.10280000      -2.71250000        1 
H      -1.33160000       1.37630000      -1.43180000        1 
H      -2.82230000       1.18940000      -2.42930000        1 
H      -4.26740000       0.85480000      -0.30100000        1 
H      -2.78120000       1.14450000       0.66910000        1 
H      -3.75280000      -0.36140000       0.91970000        1 
