25
Properties=species:S:1:pos:R:3:Z:I:1 pbc="F F F"
O       3.87190000      -0.73550000       1.40730000        8 
C      -1.65740000      -0.97150000      -0.18630000        6 
C       2.25490000       1.32210000      -0.68870000        6 
C       1.02970000       0.39970000      -0.63130000        6 
C      -1.97600000      -1.86140000       1.01760000        6 
C      -2.85030000      -0.91170000      -1.14380000        6 
C       2.93330000       1.46670000       0.67260000        6 
C      -1.31510000       0.42520000       0.28910000        6 
C      -0.13140000       1.03480000       0.09560000        6 
H      -0.81260000      -1.43800000      -0.73410000        1 
H       1.96280000       2.32450000      -1.07150000        1 
H       2.99130000       0.89010000      -1.40020000        1 
H       1.30970000      -0.55490000      -0.13450000        1 
H       0.71530000       0.17400000      -1.67340000        1 
H       3.29360000       0.33490000       1.10140000        1 
H       2.24650000       1.93540000       1.40800000        1 
H       3.83260000       2.11000000       0.57180000        1 
H      -1.09680000      -1.91180000       1.69530000        1 
H      -2.84450000      -1.46240000       1.58530000        1 
H      -2.21250000      -2.89300000       0.67950000        1 
H      -2.60090000      -0.27770000      -2.02160000        1 
H      -3.74360000      -0.48710000      -0.63650000        1 
H      -3.09780000      -1.93060000      -1.51140000        1 
H      -0.01880000       2.04390000       0.48300000        1 
H      -2.08400000       0.97430000       0.82680000        1 
