27
Properties=species:S:1:pos:R:3:Z:I:1 pbc="F F F"
O      -5.07270000       1.90540000      -0.28450000        8 
C      -0.85470000      -0.39930000       0.13770000        6 
C       0.50700000       0.20990000      -0.27680000        6 
C       1.62010000      -0.84520000      -0.42350000        6 
C      -1.95960000       0.67810000       0.02040000        6 
C       2.86710000      -0.29220000      -1.13110000        6 
C      -0.79360000      -0.97610000       1.56430000        6 
C       3.60710000       0.75000000      -0.29320000        6 
C      -3.37310000       0.10760000       0.14100000        6 
H      -1.09700000      -1.22550000      -0.56750000        1 
H       2.58700000       0.14930000      -2.11210000        1 
H       3.56160000      -1.13710000      -1.33040000        1 
H       1.23710000      -1.69870000      -1.02440000        1 
H       1.91510000      -1.23560000       0.57360000        1 
H       0.81090000       0.97550000       0.46980000        1 
H       0.38570000       0.72240000      -1.25670000        1 
H      -1.81410000       1.46410000       0.79340000        1 
H      -1.89110000       1.17040000      -0.97410000        1 
H       3.85460000       0.33890000       0.70860000        1 
H       2.99280000       1.66670000      -0.17580000        1 
H       4.55260000       1.03000000      -0.80360000        1 
H      -0.54300000      -0.18100000       2.29870000        1 
H      -0.03520000      -1.78200000       1.63190000        1 
H      -1.76250000      -1.43500000       1.84680000        1 
H      -4.20900000       1.00630000      -0.15610000        1 
H      -3.51150000      -0.74600000      -0.55610000        1 
H      -3.58180000      -0.22100000       1.17960000        1 
