19
Properties=species:S:1:pos:R:3:Z:I:1 pbc="F F F"
O      -0.65730000      -0.00620000       1.55960000        8 
O       2.25680000      -2.20520000       0.35870000        8 
C      -0.54390000      -0.07990000       0.15760000        6 
C       0.95390000      -0.21290000      -0.21430000        6 
C      -1.16190000       1.17860000      -0.48850000        6 
C      -1.28760000      -1.33140000      -0.34810000        6 
C       1.82720000       0.93030000       0.30920000        6 
H       1.39250000      -1.26490000       0.25870000        1 
H       1.06920000      -0.27130000      -1.31930000        1 
H       1.57970000       1.88300000      -0.20280000        1 
H       1.70290000       1.05210000       1.40550000        1 
H       2.89320000       0.69830000       0.10310000        1 
H      -0.97060000       1.19320000      -1.58310000        1 
H      -0.74120000       2.10050000      -0.03590000        1 
H      -2.26100000       1.20040000      -0.32550000        1 
H      -1.18510000      -1.43080000      -1.45050000        1 
H      -2.36950000      -1.27110000      -0.10140000        1 
H      -0.87680000      -2.24590000       0.13120000        1 
H      -1.62060000       0.08310000       1.78570000        1 
