32
Properties=species:S:1:pos:R:3:Z:I:1 pbc="F F F"
O      -0.69200000       0.28780000      -0.59800000        8 
O      -3.76720000       2.90010000      -3.09030000        8 
C      -1.15150000      -0.67670000       0.32480000        6 
C      -1.74890000       0.57590000      -1.48750000        6 
C      -0.09390000      -1.77870000       0.52630000        6 
C      -2.46450000      -1.25060000      -0.18920000        6 
C      -3.01130000      -0.12700000      -1.01040000        6 
C       2.00330000      -0.31290000       0.71500000        6 
C       1.09080000      -1.33830000       1.40390000        6 
C       3.27750000      -0.07460000       1.53370000        6 
C      -1.94270000       2.08660000      -1.59380000        6 
C       4.17740000       0.96060000       0.86490000        6 
H      -1.34760000      -0.16930000       1.29640000        1 
H      -1.47480000       0.18390000      -2.49200000        1 
H       3.84190000      -1.02710000       1.63640000        1 
H       3.00760000       0.28630000       2.55030000        1 
H       1.46430000       0.65230000       0.61010000        1 
H       2.28140000      -0.68140000      -0.29700000        1 
H       0.71520000      -0.92300000       2.36470000        1 
H       1.68800000      -2.24570000       1.64330000        1 
H      -0.57510000      -2.64450000       1.03320000        1 
H       0.27470000      -2.13730000      -0.46000000        1 
H      -3.14980000      -1.52630000       0.64200000        1 
H      -2.28980000      -2.13480000      -0.84330000        1 
H      -3.62420000      -0.49870000      -1.86040000        1 
H      -3.62910000       0.53670000      -0.36400000        1 
H       5.09100000       1.11040000       1.47790000        1 
H       3.64700000       1.93250000       0.77460000        1 
H       4.48070000       0.61280000      -0.14560000        1 
H      -2.89640000       2.34350000      -2.38060000        1 
H      -2.16400000       2.52120000      -0.59540000        1 
H      -1.01770000       2.55660000      -1.98970000        1 
