39
Properties=species:S:1:pos:R:3:Z:I:1 pbc="F F F"
O       1.18060000       0.10660000       0.70320000        8 
O      -1.47870000       0.70220000       0.28530000        8 
O       0.67910000       3.28900000      -0.96980000        8 
O       1.92580000       0.90790000      -2.59900000        8 
C      -2.67480000      -0.06270000       0.14700000        6 
C       2.24950000      -0.80180000       0.44910000        6 
C       0.82950000       0.95810000      -0.37910000        6 
C      -0.60030000       0.62300000      -0.82550000        6 
C       0.94070000       2.41360000       0.09250000        6 
C      -3.40840000       0.19400000      -1.19310000        6 
C      -2.38870000      -1.57010000       0.33160000        6 
C      -3.60430000       0.38680000       1.28700000        6 
C       3.58500000      -0.06500000       0.19020000        6 
C       1.92250000      -1.78680000      -0.69870000        6 
C       2.41430000      -1.62790000       1.73690000        6 
H       1.54790000       0.85130000      -1.36460000        1 
H      -0.57450000      -0.38570000      -1.28440000        1 
H      -0.92140000       1.34330000      -1.60880000        1 
H       1.97320000       2.59120000       0.46700000        1 
H       0.22880000       2.60300000       0.92720000        1 
H      -2.84490000      -0.22590000      -2.05260000        1 
H      -3.54230000       1.28500000      -1.35500000        1 
H      -4.40990000      -0.28820000      -1.18950000        1 
H      -1.75820000      -1.73290000       1.23210000        1 
H      -3.33670000      -2.13680000       0.45660000        1 
H      -1.86620000      -2.00410000      -0.54480000        1 
H      -3.11890000       0.21400000       2.27200000        1 
H      -4.56660000      -0.16990000       1.26680000        1 
H      -3.82430000       1.47270000       1.19870000        1 
H       4.43530000      -0.78070000       0.20930000        1 
H       3.60810000       0.43240000      -0.79960000        1 
H       3.75610000       0.70360000       0.97390000        1 
H       2.68760000      -2.59140000      -0.75050000        1 
H       1.91060000      -1.29000000      -1.68920000        1 
H       0.93100000      -2.25820000      -0.52830000        1 
H       1.47190000      -2.16910000       1.97130000        1 
H       2.64890000      -0.96210000       2.59560000        1 
H       3.23260000      -2.37410000       1.63710000        1 
H       0.76040000       4.20540000      -0.59770000        1 
