27
Properties=species:S:1:pos:R:3:Z:I:1 pbc="F F F"
O       2.96720000      -0.63780000      -2.26640000        8 
C      -1.58290000      -0.45860000      -1.46220000        6 
C      -0.12030000      -0.62380000      -1.01810000        6 
C      -2.68400000       0.20780000       0.81540000        6 
C       2.57870000      -0.52750000       0.17150000        6 
C      -2.56220000      -0.75050000      -0.34170000        6 
C       1.62840000       0.64390000       0.26940000        6 
C       0.40450000       0.58840000      -0.28750000        6 
C       2.02740000       1.89740000       0.95640000        6 
C      -3.34330000      -1.84190000      -0.39440000        6 
C       2.90680000       1.93890000       1.95710000        6 
H       0.50290000      -0.78080000      -1.92460000        1 
H      -0.02870000      -1.52770000      -0.37670000        1 
H      -1.75900000      -1.15370000      -2.31310000        1 
H      -1.76160000       0.56460000      -1.85880000        1 
H      -2.85880000       1.23480000       0.43190000        1 
H      -3.52720000      -0.05820000       1.48840000        1 
H      -1.75130000       0.19470000       1.41550000        1 
H       2.70750000      -0.86100000      -0.97920000        1 
H       2.18650000      -1.38260000       0.76110000        1 
H       3.59260000      -0.27610000       0.54130000        1 
H      -0.24420000       1.45410000      -0.20560000        1 
H       1.54060000       2.82410000       0.67390000        1 
H       3.13680000       2.88480000       2.43010000        1 
H       3.37860000       1.04690000       2.34560000        1 
H      -4.05730000      -2.06010000       0.39400000        1 
H      -3.27760000      -2.54010000      -1.22320000        1 
