28
Properties=species:S:1:pos:R:3:Z:I:1 pbc="F F F"
O      -0.49810000      -0.84540000       0.65840000        8 
O       0.78850000      -1.43110000      -2.84090000        8 
C       0.27280000       0.20330000       0.08450000        6 
C      -1.85550000      -0.88560000       0.23190000        6 
C       1.43520000      -0.41610000      -0.72260000        6 
C       0.74310000       1.14120000       1.21730000        6 
C      -2.66130000       0.35210000       0.65790000        6 
C      -2.00860000      -1.20710000      -1.26300000        6 
C       2.38570000      -1.27220000       0.11600000        6 
C       1.53670000       2.34770000       0.71460000        6 
H      -0.29960000       0.82920000      -0.63380000        1 
H      -2.31520000      -1.74240000       0.77120000        1 
H       0.95650000      -1.13180000      -1.60660000        1 
H       2.01440000       0.37810000      -1.23930000        1 
H      -0.15370000       1.52390000       1.75000000        1 
H       1.34580000       0.58350000       1.96480000        1 
H       3.10270000      -1.78710000      -0.55720000        1 
H       2.96830000      -0.64090000       0.81820000        1 
H       1.82400000      -2.04300000       0.68410000        1 
H       2.52850000       2.03260000       0.32950000        1 
H       1.70450000       3.05430000       1.55450000        1 
H       0.97680000       2.87710000      -0.08530000        1 
H      -2.38210000       1.25140000       0.07190000        1 
H      -3.74530000       0.16550000       0.50220000        1 
H      -2.49600000       0.55580000       1.73680000        1 
H      -1.38720000      -2.08970000      -1.52340000        1 
H      -1.71160000      -0.35230000      -1.90430000        1 
H      -3.06890000      -1.45080000      -1.48750000        1 
