27
Properties=species:S:1:pos:R:3:Z:I:1 pbc="F F F"
O       1.95050000       2.95980000      -0.06680000        8 
C      -1.32870000      -0.49670000       0.17960000        6 
C       0.13670000      -0.02780000       0.00540000        6 
C       1.11160000      -0.78720000       0.92280000        6 
C      -2.33320000       0.54030000      -0.37950000        6 
C       2.57220000      -0.35310000       0.72210000        6 
C      -1.56480000      -1.89190000      -0.42540000        6 
C       2.85730000       1.04650000       1.26550000        6 
C      -2.20440000       0.79810000      -1.88360000        6 
H      -1.53920000      -0.57090000       1.27010000        1 
H       2.84010000      -0.39440000      -0.35580000        1 
H       3.22740000      -1.07320000       1.25880000        1 
H       0.82090000      -0.64620000       1.98680000        1 
H       1.05500000      -1.87300000       0.69930000        1 
H       0.45310000      -0.15360000      -1.05300000        1 
H       0.19180000       1.05350000       0.25190000        1 
H      -2.19840000       1.50460000       0.15750000        1 
H      -3.36930000       0.19780000      -0.16610000        1 
H       2.29940000       1.92640000       0.55210000        1 
H       2.50590000       1.13820000       2.31520000        1 
H       3.95170000       1.23340000       1.24320000        1 
H      -2.64680000      -2.14290000      -0.40910000        1 
H      -1.20080000      -1.94060000      -1.47330000        1 
H      -1.03760000      -2.66700000       0.16780000        1 
H      -2.38880000      -0.13040000      -2.46210000        1 
H      -2.96090000       1.55030000      -2.19110000        1 
H      -1.20050000       1.19970000      -2.13230000        1 
