25
Properties=species:S:1:pos:R:3:Z:I:1 pbc="F F F"
O      -0.42410000      -2.68110000       0.55230000        8 
C      -1.86190000       0.39410000      -0.14570000        6 
C      -0.51390000       0.39430000      -0.90790000        6 
C       0.54580000      -0.60840000      -0.38900000        6 
C       1.61450000       0.04060000       0.50420000        6 
C      -1.69910000       0.68600000       1.35100000        6 
C      -2.66870000      -0.89280000      -0.37430000        6 
C       2.59790000       0.84550000      -0.30690000        6 
C       3.89330000       0.52350000      -0.37050000        6 
H      -2.46560000       1.22620000      -0.57240000        1 
H       0.02000000      -1.52880000       0.24300000        1 
H       1.05040000      -1.08640000      -1.25790000        1 
H      -0.72110000       0.16280000      -1.97580000        1 
H      -0.10670000       1.42810000      -0.90230000        1 
H       1.14430000       0.70190000       1.26020000        1 
H       2.13950000      -0.76750000       1.05950000        1 
H      -2.69730000       0.79970000       1.82510000        1 
H      -1.16100000      -0.13840000       1.86400000        1 
H      -1.14030000       1.63470000       1.49680000        1 
H      -2.20480000      -1.76440000       0.13010000        1 
H      -2.75430000      -1.10760000      -1.46070000        1 
H      -3.69550000      -0.76870000       0.03130000        1 
H       2.24900000       1.71740000      -0.85130000        1 
H       4.28640000      -0.33890000       0.15910000        1 
H       4.57320000       1.12810000      -0.96180000        1 
