27
Properties=species:S:1:pos:R:3:Z:I:1 pbc="F F F"
O      -0.40570000       3.09070000      -0.37650000        8 
C       1.40850000       0.57580000       0.55220000        6 
C       0.26220000       0.69230000      -0.48480000        6 
C      -1.00290000      -0.11060000      -0.13660000        6 
C       1.88550000      -0.87240000       0.81260000        6 
C      -2.09670000       0.11850000      -1.18580000        6 
C       1.04010000       1.25970000       1.87700000        6 
C      -3.35450000      -0.68010000      -0.85560000        6 
C       2.39700000      -1.57050000      -0.44790000        6 
H       2.27200000       1.14160000       0.13610000        1 
H      -2.35810000       1.19850000      -1.22650000        1 
H      -1.72690000      -0.19230000      -2.18740000        1 
H      -0.76430000      -1.19460000      -0.10320000        1 
H      -1.38820000       0.20280000       0.85640000        1 
H      -0.04050000       1.88320000      -0.59960000        1 
H       0.63650000       0.37010000      -1.48030000        1 
H       1.07520000      -1.47900000       1.26970000        1 
H       2.72220000      -0.84500000       1.54500000        1 
H      -3.12710000      -1.76730000      -0.83490000        1 
H      -4.12730000      -0.49380000      -1.63090000        1 
H      -3.75990000      -0.37100000       0.13140000        1 
H       0.67400000       2.29240000       1.69400000        1 
H       1.93620000       1.32640000       2.53040000        1 
H       0.25810000       0.68840000       2.41950000        1 
H       2.85960000      -2.54100000      -0.17030000        1 
H       1.56210000      -1.77680000      -1.14910000        1 
H       3.16280000      -0.94590000      -0.95490000        1 
