25
Properties=species:S:1:pos:R:3:Z:I:1 pbc="F F F"
O      -1.30490000       0.75060000       1.55910000        8 
C      -1.56760000       0.25190000      -0.82090000        6 
C       2.43340000       0.34270000       1.38230000        6 
C       1.01200000       0.41930000       0.80730000        6 
C      -2.06340000       1.30840000      -1.81070000        6 
C      -2.56870000      -0.90060000      -0.71570000        6 
C       2.81770000      -1.07920000       1.79180000        6 
C      -0.22440000      -0.28040000      -1.27460000        6 
C       0.91440000      -0.20900000      -0.56200000        6 
H      -1.50530000       0.77810000       0.26630000        1 
H       2.48750000       0.99240000       2.28260000        1 
H       3.16710000       0.73100000       0.64230000        1 
H       0.30590000      -0.08260000       1.50440000        1 
H       0.72740000       1.49080000       0.72740000        1 
H       2.10680000      -1.46740000       2.55190000        1 
H       2.81820000      -1.75620000       0.91210000        1 
H       3.83730000      -1.07450000       2.23160000        1 
H      -1.33720000       2.14770000      -1.86340000        1 
H      -2.18500000       0.87340000      -2.82650000        1 
H      -3.04070000       1.71670000      -1.47570000        1 
H      -2.70350000      -1.39900000      -1.70020000        1 
H      -2.20660000      -1.64990000       0.02030000        1 
H      -3.55290000      -0.52090000      -0.36760000        1 
H       1.81170000      -0.62600000      -1.01140000        1 
H      -0.17920000      -0.75700000      -2.25070000        1 
