27
Properties=species:S:1:pos:R:3:Z:I:1 pbc="F F F"
O       4.14220000       1.93990000       0.97130000        8 
C       0.69910000       0.24780000      -0.54540000        6 
C      -1.59720000      -0.88910000      -0.10060000        6 
C      -0.84440000       0.37630000      -0.60720000        6 
C       1.20130000       0.17650000       0.91770000        6 
C      -2.26950000      -0.63140000       1.25660000        6 
C      -2.65010000      -1.35270000      -1.11710000        6 
C       1.34130000       1.42620000      -1.29860000        6 
C       2.71150000      -0.03790000       1.02710000        6 
H      -0.88410000      -1.73340000       0.02680000        1 
H       0.99160000      -0.68750000      -1.07320000        1 
H       0.92550000       1.10490000       1.46350000        1 
H       0.71750000      -0.67820000       1.43360000        1 
H      -1.16200000       1.28070000      -0.04130000        1 
H      -1.12870000       0.57410000      -1.66500000        1 
H       3.33540000       1.01440000       0.71380000        1 
H       2.97390000      -0.28580000       2.07740000        1 
H       3.03630000      -0.87650000       0.37520000        1 
H      -1.52600000      -0.29200000       2.00660000        1 
H      -2.73840000      -1.56480000       1.63510000        1 
H      -3.05480000       0.14920000       1.16130000        1 
H      -3.16870000      -2.26340000      -0.74770000        1 
H      -3.40440000      -0.55520000      -1.29120000        1 
H      -2.16220000      -1.60420000      -2.08320000        1 
H       2.43450000       1.27300000      -1.40920000        1 
H       1.15750000       2.38150000      -0.76170000        1 
H       0.92290000       1.50740000      -2.32450000        1 
