26
Properties=species:S:1:pos:R:3:Z:I:1 pbc="F F F"
O       0.93600000       1.43260000      -1.30160000        8 
O      -1.40160000       2.85880000      -0.58170000        8 
C      -1.21110000      -0.64090000      -0.36430000        6 
C       1.14080000       0.08690000       0.64950000        6 
C      -0.01550000      -0.94710000       0.57830000        6 
C      -2.03580000       0.57330000       0.08960000        6 
C      -2.12030000      -1.87640000      -0.45030000        6 
C       0.87220000       1.24500000       1.62150000        6 
C       2.84270000       0.05320000      -1.33170000        6 
C       1.58710000       0.58520000      -0.70850000        6 
H      -0.83610000      -0.44900000      -1.39190000        1 
H       1.99960000      -0.46510000       1.09490000        1 
H       0.44080000      -1.90320000       0.23610000        1 
H      -0.39550000      -1.14530000       1.60500000        1 
H      -1.48050000       1.64610000      -0.27820000        1 
H      -3.03880000       0.57030000      -0.38850000        1 
H      -2.17440000       0.57300000       1.19190000        1 
H      -2.55240000      -2.11450000       0.54560000        1 
H      -2.94940000      -1.69810000      -1.16820000        1 
H      -1.54570000      -2.75580000      -0.81210000        1 
H       1.80810000       1.82270000       1.77950000        1 
H       0.10580000       1.94410000       1.23990000        1 
H       0.54200000       0.85380000       2.60720000        1 
H       3.70920000       0.27640000      -0.67470000        1 
H       2.75540000      -1.04560000      -1.46230000        1 
H       3.01710000       0.51950000      -2.32490000        1 
