19
Properties=species:S:1:pos:R:3:Z:I:1 pbc="F F F"
O       3.76780000       0.77950000      -0.51150000        8 
C       0.43280000       0.01390000      -0.46990000        6 
C      -0.73550000      -0.95610000      -0.58590000        6 
C       0.12750000       0.84420000       0.76920000        6 
C      -1.93960000      -0.20990000      -0.02350000        6 
C      -1.39260000       0.93240000       0.83350000        6 
C       1.78450000      -0.69850000      -0.38050000        6 
H       0.43620000       0.68320000      -1.35990000        1 
H      -2.57460000      -0.89260000       0.58250000        1 
H      -2.55120000       0.20200000      -0.85630000        1 
H      -1.74540000       0.84540000       1.88440000        1 
H      -1.73160000       1.90880000       0.42230000        1 
H      -0.90380000      -1.25820000      -1.64260000        1 
H      -0.55200000      -1.86650000       0.02790000        1 
H       0.50170000       0.33420000       1.68530000        1 
H       0.58920000       1.85340000       0.70100000        1 
H       2.70750000       0.15620000      -0.26980000        1 
H       1.96020000      -1.29140000      -1.30310000        1 
H       1.81880000      -1.37990000       0.49670000        1 
