21
Properties=species:S:1:pos:R:3:Z:I:1 pbc="F F F"
O       0.98110000       0.51010000      -0.72820000        8 
O       0.45040000      -0.21430000       1.40400000        8 
O      -1.61700000       3.22990000       0.12360000        8 
C      -1.38830000      -0.03380000      -0.12550000        6 
C       2.38600000       0.59220000      -0.49670000        6 
C      -2.22910000       0.90910000       0.73840000        6 
C      -1.86890000      -1.48140000       0.01270000        6 
C       3.01730000      -0.79500000      -0.52240000        6 
C       0.06520000       0.07700000       0.23760000        6 
H      -1.51290000       0.27150000      -1.18760000        1 
H       2.59030000       1.09200000       0.47520000        1 
H       2.84140000       1.20610000      -1.30200000        1 
H       2.61340000      -1.42010000       0.30100000        1 
H       4.11690000      -0.70700000      -0.39660000        1 
H       2.80430000      -1.28990000      -1.49350000        1 
H      -1.81820000       2.09530000       0.60190000        1 
H      -3.29330000       0.87020000       0.42180000        1 
H      -2.16440000       0.62690000       1.81160000        1 
H      -1.25710000      -2.14910000      -0.63140000        1 
H      -1.78850000      -1.82610000       1.06630000        1 
H      -2.92870000      -1.56380000      -0.31020000        1 
