19
Properties=species:S:1:pos:R:3:Z:I:1 pbc="F F F"
O       1.81610000       1.21900000      -2.27600000        8 
C      -0.47760000       0.05950000      -0.58660000        6 
C       0.84810000       0.63750000      -0.11100000        6 
C      -0.95510000      -0.81670000       0.56360000        6 
C       1.45250000      -0.42360000       0.80020000        6 
C       0.31280000      -1.35490000       1.21490000        6 
C      -1.49190000       1.14330000      -0.96260000        6 
H      -0.28850000      -0.58370000      -1.47570000        1 
H       2.22760000      -0.99650000       0.24560000        1 
H       1.92410000       0.04790000       1.69000000        1 
H       0.51580000      -2.38570000       0.84920000        1 
H       0.20370000      -1.38290000       2.32110000        1 
H       1.59140000       0.88260000      -1.06510000        1 
H       0.68370000       1.57060000       0.47360000        1 
H      -1.60450000      -1.64190000       0.19830000        1 
H      -1.51910000      -0.21220000       1.30910000        1 
H      -1.70470000       1.80680000      -0.09690000        1 
H      -2.44110000       0.67180000      -1.29480000        1 
H      -1.09340000       1.75900000      -1.79670000        1 
