28
Properties=species:S:1:pos:R:3:Z:I:1 pbc="F F F"
O       4.63720000       0.74170000      -0.55450000        8 
C       0.35690000      -0.50780000      -0.87270000        6 
C       0.91270000       0.92730000      -0.70940000        6 
C       1.50920000       1.22720000       0.67770000        6 
C      -0.27850000      -0.70980000      -2.25470000        6 
C       2.73610000       0.37310000       0.99090000        6 
C      -2.44040000      -1.10050000       1.81680000        6 
C      -2.53350000       0.51220000      -0.21560000        6 
C      -1.77930000      -0.51520000       0.59310000        6 
C      -0.54120000      -0.96450000       0.27060000        6 
H       1.23670000      -1.18860000      -0.85500000        1 
H       1.81590000       2.29510000       0.70050000        1 
H       0.74340000       1.08800000       1.47030000        1 
H       0.12390000       1.67520000      -0.91930000        1 
H       1.70040000       1.09380000      -1.47720000        1 
H       3.58640000       0.46950000       0.06230000        1 
H       2.44990000      -0.69090000       1.12360000        1 
H       3.20070000       0.72620000       1.93550000        1 
H      -0.95280000       0.12840000      -2.52090000        1 
H      -0.84140000      -1.66700000      -2.29190000        1 
H       0.51800000      -0.74800000      -3.02850000        1 
H      -3.45160000      -0.67640000       1.98800000        1 
H      -2.54380000      -2.20010000       1.69830000        1 
H      -1.82080000      -0.88930000       2.71420000        1 
H      -2.77210000       0.11030000      -1.21950000        1 
H      -3.50170000       0.76790000       0.26230000        1 
H      -1.96200000       1.45480000      -0.29350000        1 
H      -0.10850000      -1.73250000       0.90870000        1 
