19
Properties=species:S:1:pos:R:3:Z:I:1 pbc="F F F"
O       0.78680000       0.78200000       1.66720000        8 
O       2.46380000      -2.19400000       0.52440000        8 
C       0.26020000       0.43970000       0.40580000        6 
C      -0.87800000      -0.58450000       0.65720000        6 
C       1.38020000      -0.18320000      -0.45270000        6 
C      -0.28320000       1.71380000      -0.27540000        6 
C      -1.59480000      -1.09750000      -0.59700000        6 
H      -1.63810000      -0.12390000       1.32610000        1 
H      -0.46300000      -1.46120000       1.20170000        1 
H      -2.38390000      -1.81740000      -0.29370000        1 
H      -2.08780000      -0.26880000      -1.14460000        1 
H      -0.89340000      -1.63080000      -1.27010000        1 
H       1.78090000      -1.26110000       0.06890000        1 
H       1.03130000      -0.38910000      -1.48610000        1 
H       2.24530000       0.51040000      -0.52500000        1 
H       0.51210000       2.48690000      -0.34210000        1 
H      -1.12790000       2.13550000       0.31020000        1 
H      -0.62980000       1.50340000      -1.30860000        1 
H       1.51940000       1.43980000       1.53400000        1 
