28
Properties=species:S:1:pos:R:3:Z:I:1 pbc="F F F"
O       0.36440000      -0.73040000       0.56300000        8 
O       2.72810000      -2.80690000       2.31990000        8 
C      -0.62330000       0.13090000       0.01780000        6 
C       1.57500000      -0.68020000      -0.17480000        6 
C      -1.99850000      -0.49640000       0.32020000        6 
C      -0.47820000       1.54350000       0.64660000        6 
C       2.73980000      -0.84880000       0.79800000        6 
C       1.59270000      -1.80480000      -1.21390000        6 
C      -3.15970000       0.24280000      -0.34460000        6 
C      -0.61600000       2.65770000      -0.39080000        6 
H      -0.53930000       0.18650000      -1.09530000        1 
H       1.72700000       0.29630000      -0.69490000        1 
H      -1.99820000      -1.54320000      -0.05540000        1 
H      -2.16740000      -0.53740000       1.41850000        1 
H      -1.22240000       1.70310000       1.45700000        1 
H       0.52350000       1.64860000       1.11760000        1 
H      -4.09600000      -0.33650000      -0.20050000        1 
H      -3.30100000       1.24270000       0.11510000        1 
H      -2.97860000       0.35440000      -1.43470000        1 
H       0.18520000       2.56930000      -1.15520000        1 
H      -0.51950000       3.64460000       0.10890000        1 
H      -1.60330000       2.61170000      -0.89370000        1 
H       2.64700000      -1.95170000       1.40580000        1 
H       3.70810000      -0.81200000       0.25430000        1 
H       2.72510000      -0.02750000       1.54580000        1 
H       0.76280000      -1.66940000      -1.93850000        1 
H       2.55030000      -1.79470000      -1.77700000        1 
H       1.47240000      -2.79240000      -0.71920000        1 
