27
Properties=species:S:1:pos:R:3:Z:I:1 pbc="F F F"
O      -4.81350000       0.32700000      -1.30320000        8 
C       1.12300000       0.91690000       0.12320000        6 
C      -0.04580000       0.40110000       0.97150000        6 
C       2.79530000       2.57690000       1.22400000        6 
C      -0.62860000      -2.16800000      -0.45440000        6 
C       2.34730000       1.16190000       0.97270000        6 
C      -1.52920000      -0.95760000      -0.56110000        6 
C      -1.26680000       0.17560000       0.11840000        6 
C      -2.76440000      -0.99730000      -1.38020000        6 
C       3.03630000       0.12740000       1.48000000        6 
C      -2.90310000      -1.75160000      -2.46920000        6 
H      -0.29500000       1.16820000       1.73670000        1 
H       0.23570000      -0.52010000       1.52190000        1 
H       1.37430000       0.19250000      -0.68070000        1 
H       0.81500000       1.86500000      -0.37080000        1 
H       3.70230000       2.61970000       1.86450000        1 
H       3.02490000       3.07020000       0.25640000        1 
H       1.98120000       3.13670000       1.73040000        1 
H      -0.52060000      -2.47080000       0.60770000        1 
H      -1.04440000      -3.04750000      -0.98440000        1 
H       0.37050000      -1.94360000      -0.88010000        1 
H      -1.95400000       1.01090000       0.03700000        1 
H      -3.75430000      -0.19300000      -1.06530000        1 
H      -2.10630000      -2.38150000      -2.83980000        1 
H      -3.82640000      -1.70960000      -3.03110000        1 
H       2.72440000      -0.89510000       1.28840000        1 
H       3.92200000       0.28570000       2.08760000        1 
