39
Properties=species:S:1:pos:R:3:Z:I:1 pbc="F F F"
O      -1.86890000       0.41810000      -0.58760000        8 
O       1.71640000       0.38400000       0.06600000        8 
O      -0.54830000       2.77990000      -1.26370000        8 
O       1.36630000       3.09410000       1.50550000        8 
C       2.80420000      -0.49240000      -0.22660000        6 
C      -2.83440000      -0.27200000       0.20480000        6 
C      -0.66610000       0.76900000       0.08520000        6 
C       0.50930000       0.06400000      -0.60500000        6 
C      -0.50700000       2.29740000       0.05260000        6 
C       3.01560000      -0.71980000      -1.74440000        6 
C       2.63470000      -1.84310000       0.50390000        6 
C       4.06560000       0.19190000       0.32720000        6 
C      -4.02970000      -0.54550000      -0.72450000        6 
C      -2.30640000      -1.63720000       0.70660000        6 
C      -3.34250000       0.59310000       1.38280000        6 
H      -0.63880000       0.46930000       1.15340000        1 
H       0.29950000      -1.02490000      -0.59100000        1 
H       0.56070000       0.39620000      -1.66460000        1 
H       0.52680000       2.63410000       0.61040000        1 
H      -1.34380000       2.75720000       0.61920000        1 
H       3.05830000       0.25430000      -2.27720000        1 
H       2.19650000      -1.32980000      -2.18060000        1 
H       3.96590000      -1.26560000      -1.93000000        1 
H       1.84290000      -2.46690000       0.04160000        1 
H       3.57670000      -2.43200000       0.46300000        1 
H       2.37140000      -1.67210000       1.56970000        1 
H       3.96140000       0.36800000       1.41980000        1 
H       4.21700000       1.17640000      -0.16610000        1 
H       4.97100000      -0.43040000       0.15630000        1 
H      -4.84110000      -1.08660000      -0.19060000        1 
H      -4.44200000       0.41020000      -1.11470000        1 
H      -3.71010000      -1.16050000      -1.59360000        1 
H      -3.12880000      -2.22820000       1.16460000        1 
H      -1.88610000      -2.22070000      -0.14030000        1 
H      -1.51980000      -1.52440000       1.47970000        1 
H      -4.22470000       0.11770000       1.86360000        1 
H      -2.57410000       0.71930000       2.17200000        1 
H      -3.64140000       1.59900000       1.01820000        1 
H       0.39350000       2.85900000      -1.56530000        1 
