25
Properties=species:S:1:pos:R:3:Z:I:1 pbc="F F F"
O       3.37240000      -1.34420000       0.84530000        8 
C       1.12600000       1.10550000       0.45890000        6 
C       0.18850000      -0.04370000       0.02550000        6 
C      -0.91640000       0.42150000      -0.94030000        6 
C      -1.90630000      -0.70410000      -1.26740000        6 
C       2.02780000       0.63910000       1.60790000        6 
C       1.99120000       1.61110000      -0.70530000        6 
C      -2.77070000      -1.04100000      -0.08090000        6 
C      -2.77650000      -2.26000000       0.46590000        6 
H       0.51120000       1.95310000       0.83530000        1 
H      -0.45620000       0.75190000      -1.89500000        1 
H      -1.46460000       1.28710000      -0.50690000        1 
H      -0.29350000      -0.46750000       0.93370000        1 
H       0.78100000      -0.85630000      -0.45030000        1 
H      -1.35090000      -1.59570000      -1.63470000        1 
H      -2.57160000      -0.36640000      -2.09050000        1 
H       2.74950000      -0.32790000       1.23570000        1 
H       2.68420000       1.46960000       1.94560000        1 
H       1.41260000       0.31660000       2.47500000        1 
H       2.56120000       0.77480000      -1.16400000        1 
H       2.71100000       2.37700000      -0.34510000        1 
H       1.36220000       2.09210000      -1.48200000        1 
H      -3.40900000      -0.26960000       0.34010000        1 
H      -2.15050000      -3.05550000       0.07350000        1 
H      -3.41250000      -2.46740000       1.32020000        1 
