19
Properties=species:S:1:pos:R:3:Z:I:1 pbc="F F F"
O      -3.06380000       1.65000000      -1.25350000        8 
C       0.82480000      -0.21030000       0.55970000        6 
C      -0.16470000       0.94770000       0.58980000        6 
C       0.33170000      -1.11380000      -0.56210000        6 
C      -1.49490000       0.36370000       0.12820000        6 
C      -1.18370000      -0.96470000      -0.56030000        6 
C       2.26920000       0.25360000       0.34990000        6 
H       0.75930000      -0.76510000       1.52330000        1 
H      -2.05450000       1.13800000      -0.65300000        1 
H      -2.16040000       0.19230000       1.00270000        1 
H      -1.64300000      -1.80190000       0.01030000        1 
H      -1.58190000      -0.97600000      -1.59800000        1 
H      -0.24510000       1.38040000       1.61080000        1 
H       0.14350000       1.74730000      -0.12010000        1 
H       0.63520000      -2.16980000      -0.39240000        1 
H       0.73010000      -0.77280000      -1.54420000        1 
H       2.94760000      -0.62550000       0.32730000        1 
H       2.37320000       0.81160000      -0.60550000        1 
H       2.57750000       0.91530000       1.18700000        1 
