19
Properties=species:S:1:pos:R:3:Z:I:1 pbc="F F F"
O      -0.48840000      -1.14630000      -1.35420000        8 
O       3.42310000       1.78860000       0.29920000        8 
C      -0.50570000      -0.58020000      -0.06370000        6 
C       0.85720000       0.09930000       0.24550000        6 
C      -1.68300000       0.41180000       0.08080000        6 
C      -0.71480000      -1.72760000       0.93820000        6 
C       1.24510000       1.22450000      -0.71680000        6 
H       1.66380000      -0.66550000       0.20960000        1 
H       0.84240000       0.51470000       1.27710000        1 
H       2.37330000       1.68030000      -0.37900000        1 
H       1.32740000       0.84840000      -1.75740000        1 
H       0.51550000       2.05840000      -0.67300000        1 
H      -2.65030000      -0.11490000      -0.06630000        1 
H      -1.62720000       1.21920000      -0.67810000        1 
H      -1.68270000       0.87550000       1.09080000        1 
H      -0.73750000      -1.34370000       1.98130000        1 
H       0.10610000      -2.47200000       0.85310000        1 
H      -1.67320000      -2.25190000       0.73350000        1 
H      -0.59140000      -0.41840000      -2.02060000        1 
