26
Properties=species:S:1:pos:R:3:Z:I:1 pbc="F F F"
O       2.46400000       1.08960000       0.81260000        8 
O      -2.67480000       0.29440000      -1.55100000        8 
C      -0.82900000      -0.37640000       1.09020000        6 
C       0.64010000       0.84880000      -0.67390000        6 
C      -0.53860000      -0.11670000      -0.40830000        6 
C      -1.90440000      -1.46110000       1.23050000        6 
C      -1.27810000       0.89900000       1.81870000        6 
C       0.84170000       1.05190000      -2.18030000        6 
C       2.56910000      -0.93260000      -0.37500000        6 
C       1.92780000       0.38060000      -0.02560000        6 
H       0.09090000      -0.75740000       1.58470000        1 
H       0.37340000       1.84560000      -0.26010000        1 
H      -1.55470000       0.34530000      -0.93460000        1 
H      -0.33140000      -1.08740000      -0.90970000        1 
H      -1.56820000      -2.40120000       0.74320000        1 
H      -2.85630000      -1.13300000       0.75970000        1 
H      -2.09190000      -1.68160000       2.30310000        1 
H      -2.14240000       1.36540000       1.29910000        1 
H      -1.57570000       0.66160000       2.86250000        1 
H      -0.44670000       1.63130000       1.87440000        1 
H      -0.07190000       1.49620000      -2.62980000        1 
H       1.68880000       1.74760000      -2.36230000        1 
H       1.05250000       0.08900000      -2.69170000        1 
H       1.99030000      -1.47970000      -1.14620000        1 
H       2.63250000      -1.56650000       0.53400000        1 
H       3.59300000      -0.75260000      -0.76430000        1 
