24
Properties=species:S:1:pos:R:3:Z:I:1 pbc="F F F"
O       1.30410000      -1.13470000      -0.34900000        8 
O       2.77550000       0.62400000      -0.66540000        8 
O      -1.40650000       1.61150000      -2.94860000        8 
C      -1.61050000       0.05810000       0.03580000        6 
C      -0.47530000       0.44480000      -0.93960000        6 
C       0.39440000      -0.74440000      -1.37640000        6 
C      -2.57110000       1.24140000       0.20940000        6 
C      -1.07390000      -0.38160000       1.40650000        6 
C       3.29330000      -0.84630000       1.13350000        6 
C       2.44810000      -0.40320000      -0.01140000        6 
H      -2.19170000      -0.78400000      -0.40090000        1 
H      -0.98230000       0.91430000      -1.96210000        1 
H       0.15850000       1.24270000      -0.49570000        1 
H      -0.25290000      -1.60930000      -1.63350000        1 
H       0.96220000      -0.47380000      -2.29300000        1 
H      -2.04110000       2.11520000       0.64630000        1 
H      -3.41220000       0.96040000       0.87890000        1 
H      -3.00190000       1.53600000      -0.77130000        1 
H      -1.91210000      -0.52780000       2.12100000        1 
H      -0.54440000      -1.35250000       1.32480000        1 
H      -0.38090000       0.38140000       1.82170000        1 
H       3.33630000      -0.04250000       1.89790000        1 
H       4.32010000      -1.06930000       0.77580000        1 
H       2.86430000      -1.76040000       1.59520000        1 
