25
Properties=species:S:1:pos:R:3:Z:I:1 pbc="F F F"
O       4.49710000       1.05800000       1.82630000        8 
C      -2.20860000      -0.44830000      -0.08500000        6 
C      -0.99120000      -0.63280000       0.84290000        6 
C       2.55800000      -0.32260000      -0.68960000        6 
C      -3.50320000      -0.42820000       0.73680000        6 
C      -2.09180000       0.83990000      -0.91360000        6 
C       3.61100000       0.75610000      -0.46450000        6 
C       1.31800000      -0.05030000       0.11620000        6 
C       0.26840000      -0.88170000       0.05450000        6 
H      -2.26480000      -1.31250000      -0.78430000        1 
H       2.98090000      -1.30700000      -0.39420000        1 
H       2.29730000      -0.35590000      -1.76970000        1 
H      -1.15400000      -1.51600000       1.49760000        1 
H      -0.88480000       0.25570000       1.50480000        1 
H       3.93200000       0.80000000       0.75600000        1 
H       3.22050000       1.74780000      -0.77870000        1 
H       4.51660000       0.52370000      -1.06370000        1 
H      -3.49820000       0.41910000       1.45610000        1 
H      -4.38270000      -0.32420000       0.06590000        1 
H      -3.61390000      -1.37810000       1.30210000        1 
H      -2.01440000       1.72760000      -0.24960000        1 
H      -1.19510000       0.80170000      -1.56750000        1 
H      -2.98270000       0.95770000      -1.56670000        1 
H       1.27110000       0.83260000       0.74940000        1 
H       0.31440000      -1.76210000      -0.58150000        1 
