25
Properties=species:S:1:pos:R:3:Z:I:1 pbc="F F F"
O      -0.14110000      -2.18190000       0.60510000        8 
C      -1.90950000       0.66130000      -0.11020000        6 
C      -0.50070000       0.09370000      -0.39030000        6 
C       0.62230000       1.00680000       0.12630000        6 
C      -2.96430000      -0.16240000      -0.85990000        6 
C      -2.23130000       0.67570000       1.39170000        6 
C       3.85820000      -1.06910000      -0.32690000        6 
C       1.97030000       0.52420000      -0.33470000        6 
C       2.51100000      -0.60860000       0.13590000        6 
H      -1.96300000       1.70510000      -0.49190000        1 
H      -0.39730000      -1.02490000       0.12060000        1 
H      -0.37360000      -0.02350000      -1.48990000        1 
H       0.46640000       2.03670000      -0.26150000        1 
H       0.61540000       1.04780000       1.23590000        1 
H      -3.97720000       0.26020000      -0.68750000        1 
H      -2.95290000      -1.21940000      -0.51650000        1 
H      -2.76650000      -0.13790000      -1.95280000        1 
H      -2.11350000      -0.33890000       1.82910000        1 
H      -1.56600000       1.38260000       1.92850000        1 
H      -3.27590000       1.01590000       1.55750000        1 
H       4.62530000      -0.30490000      -0.08050000        1 
H       3.84400000      -1.23870000      -1.42420000        1 
H       4.12350000      -2.02040000       0.18000000        1 
H       1.97490000      -1.20720000       0.86730000        1 
H       2.52140000       1.12790000      -1.05110000        1 
