25
Properties=species:S:1:pos:R:3:Z:I:1 pbc="F F F"
O      -4.55730000      -1.06770000       1.85120000        8 
C      -2.08910000      -0.23360000      -0.48970000        6 
C       2.61580000      -0.18640000       0.49020000        6 
C       1.75740000       0.41700000      -0.62480000        6 
C      -2.28900000      -0.83950000       0.90330000        6 
C      -2.68670000       1.17540000      -0.57080000        6 
C       4.09100000      -0.20810000       0.10060000        6 
C      -0.63070000      -0.23940000      -0.89000000        6 
C       0.31070000       0.44020000      -0.21300000        6 
H      -2.64000000      -0.87350000      -1.21350000        1 
H       2.28200000      -1.22710000       0.69630000        1 
H       2.49860000       0.41180000       1.42050000        1 
H       2.08170000       1.46120000      -0.82370000        1 
H       1.89740000      -0.17070000      -1.55920000        1 
H       4.68720000      -0.64840000       0.92740000        1 
H       4.45500000       0.82410000      -0.08940000        1 
H       4.24030000      -0.82400000      -0.81180000        1 
H      -3.52270000      -0.92440000       1.15890000        1 
H      -1.80740000      -0.21400000       1.68480000        1 
H      -1.85440000      -1.86130000       0.94130000        1 
H      -3.77910000       1.13660000      -0.37240000        1 
H      -2.21630000       1.85270000       0.17340000        1 
H      -2.53360000       1.59640000      -1.58750000        1 
H       0.03690000       1.02770000       0.65850000        1 
H      -0.34770000      -0.82500000      -1.76060000        1 
