27
Properties=species:S:1:pos:R:3:Z:I:1 pbc="F F F"
O       2.62520000       2.46640000      -1.06590000        8 
C      -1.07020000      -0.92730000      -0.29240000        6 
C       0.06510000       0.03680000       0.13040000        6 
C       1.46360000      -0.54110000      -0.14970000        6 
C      -2.41660000      -0.55610000       0.37560000        6 
C       2.58940000       0.42130000       0.25870000        6 
C      -1.20770000      -1.02280000      -1.82210000        6 
C       2.76030000       0.52760000       1.77360000        6 
C      -2.94990000       0.82860000      -0.00310000        6 
H      -0.81380000      -1.94490000       0.07910000        1 
H       2.38070000       1.54270000      -0.21230000        1 
H       3.54380000       0.04790000      -0.17200000        1 
H       1.56900000      -0.73160000      -1.23810000        1 
H       1.58890000      -1.51200000       0.37790000        1 
H      -0.02540000       0.23160000       1.21990000        1 
H      -0.04390000       1.00800000      -0.39970000        1 
H      -3.18130000      -1.31660000       0.10440000        1 
H      -2.30000000      -0.60030000       1.48050000        1 
H       2.88910000      -0.47980000       2.22330000        1 
H       3.66320000       1.13290000       1.99920000        1 
H       1.88600000       1.03120000       2.23410000        1 
H      -1.28260000      -0.01440000      -2.28090000        1 
H      -2.11120000      -1.60910000      -2.09380000        1 
H      -0.33170000      -1.54520000      -2.25860000        1 
H      -3.91390000       1.00400000       0.51940000        1 
H      -2.24200000       1.62450000       0.30730000        1 
H      -3.13400000       0.89760000      -1.09490000        1 
