7
Properties=species:S:1:pos:R:3:Z:I:1 pbc="F F F"
O       1.54610000       0.44970000      -0.01450000        8 
O       2.75250000      -0.07550000       0.00660000        8 
C      -0.91790000      -0.08360000       0.00150000        6 
H       0.46980000       0.12620000       0.00440000        1 
H      -1.20780000      -0.65230000       0.90880000        1 
H      -1.43990000       0.89530000      -0.00410000        1 
H      -1.20280000      -0.65980000      -0.90280000        1 
