28
Properties=species:S:1:pos:R:3:Z:I:1 pbc="F F F"
O      -2.86340000       1.21070000      -1.89280000        8 
O      -4.05480000       1.65140000      -1.54910000        8 
C      -0.71520000      -0.46330000       0.33430000        6 
C      -0.69140000       0.61530000      -0.78260000        6 
C       0.61610000      -0.96650000      -0.28320000        6 
C       0.18570000      -0.33570000      -1.62180000        6 
C       0.24320000       1.80530000      -0.37290000        6 
C      -1.87340000      -1.47400000       0.14230000        6 
C      -0.71330000       0.00030000       1.81820000        6 
C       3.04640000      -0.67860000       0.73860000        6 
C       1.77190000      -0.08740000       0.21660000        6 
C       1.58930000       1.26390000       0.14910000        6 
H      -1.84670000       0.94100000      -1.31360000        1 
H       0.78400000      -2.06520000      -0.29390000        1 
H      -0.41120000      -1.02670000      -2.25500000        1 
H       0.99460000       0.14480000      -2.22050000        1 
H       0.42790000       2.45110000      -1.25730000        1 
H      -0.24670000       2.42270000       0.40870000        1 
H      -1.72490000      -2.35030000       0.80870000        1 
H      -2.84110000      -0.99350000       0.40080000        1 
H      -1.95600000      -1.85400000      -0.89580000        1 
H      -0.61270000      -0.88420000       2.48240000        1 
H      -1.67640000       0.50270000       2.04970000        1 
H       0.09420000       0.70020000       2.09790000        1 
H       3.90020000      -0.33840000       0.11570000        1 
H       3.20610000      -0.35490000       1.78850000        1 
H       3.00400000      -1.78740000       0.71070000        1 
H       2.36360000       1.95110000       0.47610000        1 
