28
Properties=species:S:1:pos:R:3:Z:I:1 pbc="F F F"
O      -0.38510000       2.04480000       1.64040000        8 
O      -0.74220000       3.28780000       1.39700000        8 
C       0.24760000      -0.10420000      -1.27520000        6 
C      -0.73810000      -0.37030000       1.10210000        6 
C       0.15690000      -0.99030000       0.00320000        6 
C       1.62130000       0.59440000      -1.40870000        6 
C      -0.44070000      -1.01220000       2.46210000        6 
C      -2.22780000      -0.53010000       0.76460000        6 
C      -0.02300000      -0.94750000      -2.52940000        6 
C       1.86870000       1.62880000      -0.31070000        6 
H      -0.47950000       0.91200000       1.20960000        1 
H      -0.53220000       0.68850000      -1.25540000        1 
H       2.43870000      -0.15970000      -1.39380000        1 
H       1.67180000       1.12310000      -2.38600000        1 
H      -0.23380000      -2.00490000      -0.23670000        1 
H       1.17800000      -1.16600000       0.40780000        1 
H       1.94150000       1.13970000       0.68280000        1 
H       2.82670000       2.15450000      -0.50800000        1 
H       1.05120000       2.38040000      -0.29550000        1 
H       0.61960000      -0.83640000       2.74250000        1 
H      -0.62930000      -2.10690000       2.42960000        1 
H      -1.08090000      -0.55830000       3.24820000        1 
H      -2.50270000      -1.60470000       0.69700000        1 
H      -2.84850000      -0.05110000       1.55120000        1 
H      -2.46830000      -0.04000000      -0.20090000        1 
H       0.73660000      -1.75260000      -2.63000000        1 
H       0.00570000      -0.31020000      -3.43900000        1 
H      -1.03210000      -1.40890000      -2.46880000        1 
