28
Properties=species:S:1:pos:R:3:Z:I:1 pbc="F F F"
O       2.25910000      -1.83180000       0.23200000        8 
O       3.27270000      -2.44020000       0.81020000        8 
C      -1.31050000      -0.28490000      -0.10900000        6 
C       1.28130000       0.42260000      -0.07390000        6 
C      -0.07700000       0.36040000      -0.82970000        6 
C      -0.92500000      -1.55820000       0.67190000        6 
C      -2.00190000       0.72010000       0.84050000        6 
C      -2.34140000      -0.68070000      -1.19170000        6 
C       1.24500000       1.31780000       1.17270000        6 
C       2.37250000       0.92650000      -1.03060000        6 
H       1.64410000      -0.78510000       0.28990000        1 
H      -0.34750000       1.38330000      -1.17500000        1 
H       0.11430000      -0.22680000      -1.75600000        1 
H       2.27390000       1.57600000       1.50270000        1 
H       0.78070000       0.77690000       2.01950000        1 
H       0.69390000       2.26090000       0.97010000        1 
H       2.15110000       1.96200000      -1.36840000        1 
H       2.44240000       0.26430000      -1.91960000        1 
H       3.36230000       0.91550000      -0.52650000        1 
H      -0.38350000      -2.27030000       0.01270000        1 
H      -1.83270000      -2.06730000       1.06260000        1 
H      -0.28250000      -1.31770000       1.54350000        1 
H      -1.39130000       0.94490000       1.73280000        1 
H      -2.96380000       0.30560000       1.21290000        1 
H      -2.22130000       1.67340000       0.31350000        1 
H      -3.25730000      -1.11340000      -0.73320000        1 
H      -2.64000000       0.20720000      -1.79050000        1 
H      -1.91760000      -1.44100000      -1.88330000        1 
