28
Properties=species:S:1:pos:R:3:Z:I:1 pbc="F F F"
O      -1.90910000      -1.09860000       0.97630000        8 
O      -1.52690000      -1.03170000       2.23380000        8 
C       1.63670000      -0.37720000      -0.58150000        6 
C       0.27530000      -0.72770000       0.02650000        6 
C       2.91300000       0.30490000       1.59410000        6 
C      -2.82930000       0.53380000      -1.96630000        6 
C       2.75040000      -0.61410000       0.41330000        6 
C      -1.79070000       0.42060000      -0.87840000        6 
C      -0.81990000      -0.50650000      -0.98730000        6 
C       3.60720000      -1.63280000       0.24850000        6 
C      -2.75000000       2.27900000       0.48220000        6 
C      -1.83570000       1.33090000       0.28990000        6 
H       0.26690000      -1.80050000       0.31690000        1 
H       0.11580000      -0.13680000       0.95220000        1 
H       1.64890000       0.69130000      -0.88890000        1 
H       1.79360000      -0.98760000      -1.49920000        1 
H       2.79240000      -0.26930000       2.53690000        1 
H       2.15610000       1.11710000       1.57440000        1 
H       3.92190000       0.76880000       1.57470000        1 
H      -3.83880000       0.36200000      -1.53740000        1 
H      -2.78960000       1.54820000      -2.41580000        1 
H      -2.67270000      -0.20720000      -2.77950000        1 
H      -0.79820000      -1.15030000      -1.85930000        1 
H       3.51620000      -2.31290000      -0.59290000        1 
H       4.41070000      -1.80230000       0.95940000        1 
H      -2.69550000       2.89320000       1.37030000        1 
H      -3.55020000       2.45760000      -0.22300000        1 
H      -1.99830000      -0.05170000       0.66000000        1 
