40
Properties=species:S:1:pos:R:3:Z:I:1 pbc="F F F"
O      -1.10430000      -0.96190000      -0.08710000        8 
O       1.50880000      -0.18460000       0.27660000        8 
O       0.87700000      -2.51930000      -1.21280000        8 
O      -3.08090000       2.84830000       1.67640000        8 
O      -3.32990000       2.38860000       2.88410000        8 
C       2.74170000       0.46370000       0.58850000        6 
C      -2.48040000      -0.59410000      -0.02020000        6 
C      -0.38780000      -0.44820000      -1.20350000        6 
C       0.72990000       0.47920000      -0.70460000        6 
C       0.17180000      -1.61900000      -2.02720000        6 
C       2.57560000       1.97020000       0.90800000        6 
C       3.28060000      -0.22910000       1.85150000        6 
C       3.77580000       0.26380000      -0.54180000        6 
C      -3.03000000      -1.24140000       1.26070000        6 
C      -3.28850000      -1.14610000      -1.21800000        6 
C      -2.66320000       0.93180000       0.12090000        6 
H      -1.00620000       0.15300000      -1.90240000        1 
H      -0.67690000      -2.16480000      -2.49070000        1 
H       0.80730000      -1.23930000      -2.86180000        1 
H       1.32980000       0.80930000      -1.57810000        1 
H       0.24490000       1.37150000      -0.25310000        1 
H      -2.90820000      -2.34550000       1.21800000        1 
H      -2.47500000      -0.86840000       2.14890000        1 
H      -4.10930000      -1.01230000       1.39890000        1 
H      -3.07480000      -2.22740000      -1.35750000        1 
H      -3.05170000      -0.61600000      -2.16240000        1 
H      -4.37920000      -1.02320000      -1.04280000        1 
H       2.31960000       2.55090000      -0.00350000        1 
H       1.77410000       2.11760000       1.66340000        1 
H       3.52180000       2.39210000       1.31080000        1 
H       4.25560000       0.20350000       2.16520000        1 
H       3.42190000      -1.31590000       1.66520000        1 
H       2.55950000      -0.11580000       2.68980000        1 
H       4.78750000       0.57950000      -0.20670000        1 
H       3.52980000       0.86750000      -1.43880000        1 
H       3.82190000      -0.80590000      -0.83700000        1 
H      -3.71900000       1.18880000       0.35480000        1 
H      -2.37400000       1.48600000      -0.79460000        1 
H       1.84200000      -2.31530000      -1.32100000        1 
H      -2.73790000       1.92840000       1.08390000        1 
