26
Properties=species:S:1:pos:R:3:Z:I:1 pbc="F F F"
O      -1.30600000       2.57810000       1.17570000        8 
O      -0.77070000       3.61310000       0.56420000        8 
C      -2.00180000      -0.22970000      -0.22250000        6 
C       2.97600000       0.22240000      -0.62330000        6 
C       1.74360000       0.68330000       0.16710000        6 
C      -3.15070000       0.46310000       0.51260000        6 
C      -2.04770000      -1.74340000       0.01870000        6 
C       3.32330000      -1.24160000      -0.35300000        6 
C       0.47230000       0.07300000      -0.35370000        6 
C      -0.69210000       0.34870000       0.24320000        6 
H      -2.11730000      -0.03310000      -1.31150000        1 
H       3.84400000       0.84920000      -0.32470000        1 
H       2.81000000       0.37300000      -1.71250000        1 
H       1.87020000       0.42710000       1.24200000        1 
H       1.66440000       1.78920000       0.08640000        1 
H       2.49790000      -1.90870000      -0.67860000        1 
H       3.51580000      -1.39910000       0.72960000        1 
H       4.23920000      -1.51490000      -0.91820000        1 
H      -4.12640000       0.07100000       0.15410000        1 
H      -3.12550000       1.55680000       0.31670000        1 
H      -3.07640000       0.29320000       1.60880000        1 
H      -3.02390000      -2.15450000      -0.31630000        1 
H      -1.24700000      -2.25260000      -0.55850000        1 
H      -1.91300000      -1.97280000       1.09790000        1 
H       0.49290000      -0.58340000      -1.21990000        1 
H      -0.85110000       1.69270000       0.67580000        1 
