26
Properties=species:S:1:pos:R:3:Z:I:1 pbc="F F F"
O       1.18190000      -0.62160000      -0.71850000        8 
O       1.21990000       3.43360000       1.68890000        8 
O       3.30340000       0.22290000      -0.35900000        8 
O       0.96400000       2.27300000       1.12390000        8 
C      -1.71280000       0.15940000       0.34380000        6 
C      -0.95520000       0.50220000      -0.95950000        6 
C       0.55640000       0.65650000      -0.76240000        6 
C      -3.22630000       0.22800000       0.10080000        6 
C      -1.33550000      -1.22640000       0.88860000        6 
C       3.13800000      -2.15050000      -0.45790000        6 
C       2.55370000      -0.78000000      -0.50820000        6 
H      -1.46340000       0.91930000       1.11720000        1 
H      -1.33970000       1.47160000      -1.34640000        1 
H      -1.15480000      -0.26670000      -1.73840000        1 
H       0.80990000       1.32600000       0.35600000        1 
H       0.97420000       1.23110000      -1.61780000        1 
H      -3.51440000       1.24160000      -0.25130000        1 
H      -3.77790000       0.02570000       1.04370000        1 
H      -3.53450000      -0.51850000      -0.66280000        1 
H      -1.45910000      -2.00440000       0.10490000        1 
H      -1.97860000      -1.48870000       1.75580000        1 
H      -0.28610000      -1.23090000       1.24810000        1 
H       2.34310000      -2.91160000      -0.60470000        1 
H       3.89790000      -2.26210000      -1.25930000        1 
H       3.61780000      -2.31560000       0.52940000        1 
H       1.17820000       4.08610000       0.94520000        1 
