25
Properties=species:S:1:pos:R:3:Z:I:1 pbc="F F F"
O       1.67870000       0.07490000       0.82030000        8 
O      -1.74560000       2.44630000      -1.49160000        8 
O       2.60330000       0.51080000      -1.25660000        8 
O      -1.52370000       3.65950000      -1.03270000        8 
C      -1.13930000      -0.57120000       0.14680000        6 
C       0.71120000       1.12220000       0.76430000        6 
C      -2.14050000      -0.91460000      -0.96200000        6 
C      -1.86110000      -0.51330000       1.49960000        6 
C       3.50150000      -1.36480000      -0.09890000        6 
C      -0.44600000       0.76730000      -0.17840000        6 
C       2.57150000      -0.20620000      -0.21990000        6 
H      -0.38040000      -1.38350000       0.18100000        1 
H       0.31860000       1.30640000       1.78460000        1 
H       1.19060000       2.06600000       0.42610000        1 
H      -1.61730000      -1.00400000      -1.93810000        1 
H      -2.92040000      -0.12680000      -1.04320000        1 
H      -2.63280000      -1.88770000      -0.74920000        1 
H      -2.55980000       0.35020000       1.53370000        1 
H      -1.12970000      -0.42320000       2.32910000        1 
H      -2.43800000      -1.44750000       1.66910000        1 
H       4.55140000      -1.00810000      -0.15050000        1 
H       3.31510000      -2.08050000      -0.92660000        1 
H       3.34320000      -1.88400000       0.86960000        1 
H      -0.07800000       0.76970000      -1.22730000        1 
H      -1.17250000       1.74200000      -0.74930000        1 
