26
Properties=species:S:1:pos:R:3:Z:I:1 pbc="F F F"
O      -1.66310000      -1.54880000      -2.34850000        8 
O      -1.07370000      -2.67460000      -2.00630000        8 
C      -1.50870000       0.26360000       0.59570000        6 
C       2.84170000      -0.30730000      -0.62080000        6 
C      -2.97250000      -0.18200000       0.56210000        6 
C      -1.37140000       1.59700000       1.34310000        6 
C       3.44140000      -0.50950000       0.76560000        6 
C      -0.97120000       0.36750000      -0.84200000        6 
C       1.34660000      -0.46280000      -0.57240000        6 
C       0.52030000       0.54210000      -0.89410000        6 
H      -0.93370000      -0.51180000       1.14820000        1 
H       3.13270000       0.69810000      -0.99700000        1 
H       3.25830000      -1.06750000      -1.31520000        1 
H       3.03930000       0.24810000       1.47210000        1 
H       4.54490000      -0.39770000       0.71370000        1 
H       3.20480000      -1.52690000       1.14480000        1 
H      -3.59980000       0.56720000       0.03220000        1 
H      -3.06120000      -1.15830000       0.03890000        1 
H      -3.35920000      -0.30700000       1.59610000        1 
H      -1.76830000       1.49890000       2.37600000        1 
H      -1.93140000       2.40100000       0.81880000        1 
H      -0.30280000       1.89120000       1.41430000        1 
H       0.93670000      -1.42190000      -0.26650000        1 
H      -1.47070000       1.19830000      -1.38680000        1 
H       0.92000000       1.49730000      -1.22310000        1 
H      -1.19920000      -0.69420000      -1.54890000        1 
