20
Properties=species:S:1:pos:R:3:Z:I:1 pbc="F F F"
O      -1.27740000      -1.45670000      -0.41040000        8 
O       3.71410000       0.13820000      -1.31190000        8 
O       4.16100000       1.17810000      -0.64050000        8 
C      -0.86510000      -0.31240000       0.30030000        6 
C       0.68210000      -0.23590000       0.26730000        6 
C      -1.49040000       0.95160000      -0.32780000        6 
C      -1.32150000      -0.43240000       1.76790000        6 
C       1.26840000      -0.20270000      -1.14410000        6 
H       1.03360000       0.66480000       0.81660000        1 
H       1.10550000      -1.12510000       0.78300000        1 
H      -1.28870000       0.98980000      -1.41860000        1 
H      -2.59340000       0.94870000      -0.19320000        1 
H      -1.08270000       1.86970000       0.14730000        1 
H      -0.90550000      -1.35440000       2.22790000        1 
H      -2.42960000      -0.48660000       1.83100000        1 
H      -0.97960000       0.44510000       2.35850000        1 
H       0.92840000      -1.07000000      -1.74810000        1 
H       1.03820000       0.75210000      -1.66060000        1 
H      -2.27000000      -1.49250000      -0.38610000        1 
H       2.57250000       0.23060000      -1.25840000        1 
