28
Properties=species:S:1:pos:R:3:Z:I:1 pbc="F F F"
O       3.48660000       0.78480000      -1.17440000        8 
O       2.99820000       1.93170000      -1.59610000        8 
C      -1.58960000       0.44750000       0.13460000        6 
C       0.58880000      -0.95060000       0.22420000        6 
C      -0.43260000      -0.19210000      -0.67170000        6 
C      -2.27320000       1.54530000      -0.69030000        6 
C      -2.62490000      -0.60690000       0.55630000        6 
C       0.95970000      -2.29470000      -0.41620000        6 
C       1.64590000       1.14160000       1.26700000        6 
C       1.87420000      -0.12700000       0.44940000        6 
H      -1.18680000       0.92340000       1.05440000        1 
H       0.14690000      -1.18020000       1.21830000        1 
H      -0.87490000      -0.86900000      -1.43710000        1 
H       0.10300000       0.59090000      -1.25380000        1 
H       0.05090000      -2.92150000      -0.54320000        1 
H       1.66760000      -2.85220000       0.23400000        1 
H       1.43160000      -2.13650000      -1.41000000        1 
H      -3.10010000       2.00590000      -0.10840000        1 
H      -1.54480000       2.34590000      -0.94080000        1 
H      -2.68630000       1.12690000      -1.63340000        1 
H      -3.08090000      -1.08820000      -0.33550000        1 
H      -2.15690000      -1.39340000       1.18310000        1 
H      -3.43120000      -0.13180000       1.15500000        1 
H       1.02020000       1.86120000       0.70040000        1 
H       2.62370000       1.62510000       1.47200000        1 
H       1.15860000       0.89840000       2.23500000        1 
H       2.64150000      -0.74490000       0.96590000        1 
H       2.58470000       0.26050000      -0.63870000        1 
