40
Properties=species:S:1:pos:R:3:Z:I:1 pbc="F F F"
O       1.22350000       0.13270000       0.38050000        8 
O      -1.37890000      -0.23030000      -0.84250000        8 
O      -1.14590000       1.65320000      -2.91300000        8 
O      -1.02140000       1.94980000       1.75760000        8 
O       0.16810000       2.37170000       2.13030000        8 
C       2.48710000      -0.48940000       0.15650000        6 
C      -2.21030000      -0.64300000       0.23910000        6 
C       0.74650000       0.90380000      -0.70590000        6 
C      -2.80250000      -2.00450000      -0.16070000        6 
C      -3.38160000       0.33800000       0.47630000        6 
C      -1.40700000      -0.83630000       1.54550000        6 
C       3.56120000       0.49060000      -0.37810000        6 
C       2.95840000      -1.00460000       1.52700000        6 
C       2.34160000      -1.70580000      -0.78480000        6 
C      -1.32390000       2.07130000      -1.58530000        6 
C      -0.77760000       1.02540000      -0.60130000        6 
H      -0.83980000       3.05890000      -1.40610000        1 
H      -2.40860000       2.21110000      -1.40640000        1 
H       1.19280000       1.92020000      -0.64410000        1 
H       0.99270000       0.46270000      -1.69420000        1 
H      -3.39330000      -1.90810000      -1.09720000        1 
H      -1.98920000      -2.74010000      -0.34250000        1 
H      -3.46730000      -2.40370000       0.63610000        1 
H      -3.01500000       1.31480000       0.85700000        1 
H      -4.08810000      -0.07030000       1.23110000        1 
H      -3.93950000       0.50880000      -0.46910000        1 
H      -0.55940000      -1.53470000       1.37860000        1 
H      -1.00780000       0.13100000       1.91740000        1 
H      -2.05450000      -1.25970000       2.34350000        1 
H       3.60750000       1.39710000       0.26280000        1 
H       4.56300000       0.00910000      -0.38150000        1 
H       3.34380000       0.80390000      -1.42080000        1 
H       3.06310000      -0.15900000       2.24080000        1 
H       2.21670000      -1.71810000       1.94730000        1 
H       3.93920000      -1.52230000       1.44830000        1 
H       2.16050000      -1.39850000      -1.83460000        1 
H       1.49500000      -2.34570000      -0.45500000        1 
H       3.26960000      -2.31760000      -0.78090000        1 
H      -0.25690000       1.98600000      -3.20320000        1 
H      -0.86130000       1.55160000       0.63170000        1 
