23
Properties=species:S:1:pos:R:3:Z:I:1 pbc="F F F"
O      -2.28770000      -1.79160000      -0.98670000        8 
O       2.65530000       1.93800000      -1.62900000        8 
O       2.34620000       3.16260000      -1.25920000        8 
C      -0.92510000      -0.35770000       0.41800000        6 
C       0.19480000       0.71190000       0.41940000        6 
C      -1.29160000      -0.80280000      -1.01310000        6 
C      -2.15980000       0.19780000       1.14510000        6 
C       2.17850000      -0.90540000       0.62650000        6 
C       1.53960000       0.23930000      -0.15340000        6 
H      -0.57990000      -1.24660000       0.98880000        1 
H      -0.13760000       1.59660000      -0.16580000        1 
H       0.37310000       1.05980000       1.46030000        1 
H      -0.40270000      -1.24560000      -1.50600000        1 
H      -1.61110000       0.07390000      -1.62460000        1 
H      -1.88760000       0.52800000       2.17040000        1 
H      -2.58450000       1.06270000       0.59140000        1 
H      -2.94030000      -0.58580000       1.24430000        1 
H       2.18990000      -0.67610000       1.71290000        1 
H       1.62820000      -1.85250000       0.44860000        1 
H       3.22480000      -1.03810000       0.28190000        1 
H       1.48350000       0.01080000      -1.23800000        1 
H      -3.15830000      -1.33080000      -1.10980000        1 
H       2.15210000       1.25160000      -0.82220000        1 
