33
Properties=species:S:1:pos:R:3:Z:I:1 pbc="F F F"
O       2.18780000       0.76720000      -0.39190000        8 
O      -6.64120000       0.53470000       0.02120000        8 
O      -6.74280000       1.18310000       1.16190000        8 
C       1.61730000      -0.47020000      -0.02020000        6 
C       3.40040000       0.91350000       0.31480000        6 
C       3.73190000      -0.39710000       1.01360000        6 
C       2.38600000      -1.03010000       1.16890000        6 
C       0.12410000      -0.29660000       0.30020000        6 
C      -0.67450000       0.12250000      -0.94490000        6 
C      -2.15010000       0.41570000      -0.63060000        6 
C      -2.95070000      -0.85410000      -0.31470000        6 
C       4.51040000       1.34920000      -0.64010000        6 
C      -4.42560000      -0.52390000      -0.12940000        6 
H       3.26190000       1.70740000       1.08240000        1 
H       1.72660000      -1.17620000      -0.87450000        1 
H       4.22410000      -0.22870000       1.99640000        1 
H       4.37480000      -1.04670000       0.37760000        1 
H       1.93440000      -0.70560000       2.13360000        1 
H       2.44620000      -2.14000000       1.13730000        1 
H       0.00540000       0.47240000       1.09540000        1 
H      -0.26930000      -1.26240000       0.68290000        1 
H      -0.22670000       1.04860000      -1.36670000        1 
H      -0.60540000      -0.66870000      -1.72350000        1 
H      -2.59760000       0.90920000      -1.52140000        1 
H      -2.22100000       1.12900000       0.22000000        1 
H      -2.57910000      -1.31470000       0.62420000        1 
H      -2.84450000      -1.58940000      -1.14180000        1 
H       4.64100000       0.60080000      -1.45090000        1 
H       4.24860000       2.32670000      -1.09750000        1 
H       5.46780000       1.46110000      -0.08790000        1 
H      -4.98320000      -1.43520000       0.17360000        1 
H      -4.85830000      -0.13140000      -1.07430000        1 
H      -5.51890000       0.32990000      -0.09380000        1 
