28
Properties=species:S:1:pos:R:3:Z:I:1 pbc="F F F"
O       0.45860000       3.11470000      -0.43140000        8 
O       1.26870000       3.42140000      -1.42210000        8 
C      -1.11740000       0.06810000       0.09120000        6 
C       1.60320000      -0.18370000      -0.04450000        6 
C      -1.24920000      -1.14100000       1.03520000        6 
C      -1.54780000      -0.32660000      -1.33690000        6 
C      -2.08520000       1.16820000       0.58180000        6 
C       1.60000000      -1.16940000      -1.21500000        6 
C       2.01480000      -0.86560000       1.26790000        6 
C       0.32010000       0.67800000       0.08990000        6 
H       2.40850000       0.54990000      -0.27040000        1 
H      -2.31420000      -1.44370000       1.13400000        1 
H      -0.86630000      -0.88970000       2.04760000        1 
H      -0.70150000      -2.02030000       0.64250000        1 
H      -1.04540000      -1.24820000      -1.68530000        1 
H      -1.32560000       0.49430000      -2.05250000        1 
H      -2.63950000      -0.53320000      -1.37440000        1 
H      -3.13800000       0.81060000       0.57020000        1 
H      -1.84170000       1.47220000       1.62320000        1 
H      -2.01770000       2.06720000      -0.06910000        1 
H       2.63210000      -1.54140000      -1.39110000        1 
H       1.25900000      -0.66500000      -2.14370000        1 
H       0.96130000      -2.04940000      -1.00100000        1 
H       1.93910000      -0.15450000       2.11770000        1 
H       3.07120000      -1.20240000       1.19720000        1 
H       1.39490000      -1.75670000       1.48480000        1 
H       0.45860000       1.40200000       0.92410000        1 
H       0.49950000       1.94430000      -0.37000000        1 
