28
Properties=species:S:1:pos:R:3:Z:I:1 pbc="F F F"
O      -2.41940000       2.60140000      -1.02920000        8 
O      -2.04330000       3.85720000      -0.91310000        8 
C      -0.87090000      -0.13900000       0.52420000        6 
C       0.48620000       0.25460000      -0.10930000        6 
C       1.54620000      -0.85480000       0.02870000        6 
C      -1.67690000      -1.06650000      -0.41780000        6 
C       2.86340000      -0.50360000      -0.68140000        6 
C      -2.86740000      -1.73040000       0.27680000        6 
C       3.64680000       0.59930000       0.03040000        6 
C      -1.67610000       1.13030000       0.83430000        6 
H      -0.67740000      -0.66300000       1.48710000        1 
H      -1.02900000      -1.88040000      -0.80200000        1 
H      -2.04040000      -0.49240000      -1.29840000        1 
H       0.87770000       1.16060000       0.40070000        1 
H       0.34140000       0.51280000      -1.18180000        1 
H       1.74320000      -1.05620000       1.10450000        1 
H       1.16770000      -1.79570000      -0.42020000        1 
H       3.49900000      -1.41530000      -0.71140000        1 
H       2.66310000      -0.20040000      -1.73200000        1 
H      -3.64560000      -0.98290000       0.53330000        1 
H      -3.32390000      -2.47660000      -0.40730000        1 
H      -2.53720000      -2.25470000       1.19860000        1 
H       4.64040000       0.71480000      -0.45150000        1 
H       3.80160000       0.33950000       1.09920000        1 
H       3.11520000       1.57030000      -0.04220000        1 
H      -2.61240000       0.88800000       1.37720000        1 
H      -1.09040000       1.82300000       1.47570000        1 
H      -1.88150000       2.06010000      -0.17340000        1 
