30
Properties=species:S:1:pos:R:3:Z:I:1 pbc="F F F"
O       4.20760000       1.96940000       0.01860000        8 
O      -0.27590000       0.59400000       1.97430000        8 
O       5.07370000       2.14020000      -0.95730000        8 
C      -2.69540000       0.63600000       0.15880000        6 
C       2.04450000      -0.72140000       0.54840000        6 
C      -1.20130000       0.79690000      -0.18950000        6 
C       0.53950000      -1.05020000       0.48730000        6 
C      -3.13130000      -0.83530000       0.09040000        6 
C      -3.55370000       1.48240000      -0.78920000        6 
C       2.87850000      -1.99250000       0.36800000        6 
C      -0.31040000       0.14520000       0.83790000        6 
C       2.43990000       0.30340000      -0.51870000        6 
H      -2.86920000       1.00670000       1.19360000        1 
H       2.28720000      -0.29700000       1.54780000        1 
H      -1.00570000       0.37560000      -1.19980000        1 
H      -0.93960000       1.87680000      -0.23130000        1 
H       0.28010000      -1.43010000      -0.52510000        1 
H       0.30360000      -1.86170000       1.20980000        1 
H      -2.56730000      -1.44250000       0.82940000        1 
H      -2.95390000      -1.25010000      -0.92520000        1 
H      -4.21190000      -0.92670000       0.33110000        1 
H      -4.62780000       1.39020000      -0.52060000        1 
H      -3.27120000       2.55380000      -0.70920000        1 
H      -3.41720000       1.15280000      -1.84180000        1 
H       3.96150000      -1.75030000       0.42600000        1 
H       2.64420000      -2.72190000       1.17250000        1 
H       2.66840000      -2.46410000      -0.61640000        1 
H       2.16130000      -0.04670000      -1.53590000        1 
H       1.97170000       1.29010000      -0.31790000        1 
H       3.57010000       1.07690000      -0.31600000        1 
