22
Properties=species:S:1:pos:R:3:Z:I:1 pbc="F F F"
O       1.13580000       0.80840000       0.06090000        8 
O      -2.36360000       2.03460000      -0.45780000        8 
O       0.76490000      -1.25330000      -0.92370000        8 
O      -3.15730000       2.22940000       0.57360000        8 
C       2.54950000       0.79700000      -0.12750000        6 
C       3.22130000      -0.11130000       0.89590000        6 
C      -1.60740000      -1.26590000       0.92570000        6 
C      -1.99810000      -0.13790000      -1.30770000        6 
C      -1.16550000      -0.15360000      -0.02550000        6 
C       0.29970000      -0.24350000      -0.32610000        6 
H       2.93230000       1.83050000       0.00770000        1 
H       2.80050000       0.46850000      -1.15950000        1 
H       2.89150000      -1.16200000       0.75720000        1 
H       2.96160000       0.21920000       1.92380000        1 
H       4.32340000      -0.06420000       0.77010000        1 
H      -2.67590000      -1.12910000       1.19510000        1 
H      -1.47790000      -2.26330000       0.45300000        1 
H      -1.00650000      -1.22530000       1.85890000        1 
H      -3.07010000       0.00950000      -1.05910000        1 
H      -1.88340000      -1.09320000      -1.86380000        1 
H      -1.67420000       0.70230000      -1.95780000        1 
H      -1.80050000       1.00330000      -0.21340000        1 
