23
Properties=species:S:1:pos:R:3:Z:I:1 pbc="F F F"
O       0.30750000       0.48450000      -0.77860000        8 
O       3.91670000      -1.10610000       1.64570000        8 
O      -0.14910000      -1.36780000       0.52450000        8 
O       3.06320000      -0.27080000       1.09280000        8 
C      -1.99150000       0.12240000       0.14550000        6 
C       1.67460000       0.14350000      -0.97740000        6 
C      -2.93770000      -0.92570000      -0.44800000        6 
C      -2.31060000       0.37610000       1.62190000        6 
C       2.35160000       1.21510000      -1.81490000        6 
C      -0.56000000      -0.30510000      -0.01930000        6 
H      -2.14280000       1.07540000      -0.40800000        1 
H       2.28810000       0.05650000       0.19710000        1 
H       1.74570000      -0.83430000      -1.50150000        1 
H       3.41880000       0.95030000      -1.96690000        1 
H       2.29340000       2.19370000      -1.29360000        1 
H       1.85320000       1.29610000      -2.80410000        1 
H      -2.84320000      -1.89360000       0.09010000        1 
H      -2.70250000      -1.08700000      -1.52190000        1 
H      -3.98950000      -0.57620000      -0.37220000        1 
H      -1.62550000       1.14850000       2.03280000        1 
H      -2.19900000      -0.55630000       2.21660000        1 
H      -3.35300000       0.74510000       1.72880000        1 
H       3.89130000      -0.88440000       2.61050000        1 
