29
Properties=species:S:1:pos:R:3:Z:I:1 pbc="F F F"
O       0.65810000      -0.50970000       1.94190000        8 
O      -0.03860000      -1.59570000       1.68320000        8 
C       1.39440000      -1.14480000       0.43220000        6 
C       1.61360000       0.29670000      -0.04340000        6 
C       2.69690000      -1.93910000       0.40300000        6 
C       0.58050000       2.60980000      -0.13030000        6 
C      -2.85240000      -0.29220000      -1.69720000        6 
C      -2.30270000       0.05330000       0.83230000        6 
C       0.31480000       1.11420000       0.03790000        6 
C      -1.90140000       0.15670000      -0.61930000        6 
C      -0.69870000       0.64710000      -0.97590000        6 
H       0.65380000      -1.65320000      -0.22240000        1 
H       0.99960000      -1.13830000       1.47160000        1 
H       2.38050000       0.76910000       0.60930000        1 
H       1.99970000       0.29940000      -1.08710000        1 
H       3.10200000      -1.97720000      -0.63070000        1 
H       2.50700000      -2.97720000       0.74850000        1 
H       3.44870000      -1.47330000       1.07510000        1 
H      -0.37190000       3.17460000      -0.04270000        1 
H       1.03730000       2.81780000      -1.12190000        1 
H       1.26600000       2.96480000       0.66760000        1 
H      -2.38630000      -1.10520000      -2.29340000        1 
H      -3.08870000       0.56070000      -2.36810000        1 
H      -3.80330000      -0.67430000      -1.27120000        1 
H      -3.32520000      -0.36320000       0.94420000        1 
H      -2.28600000       1.06040000       1.30010000        1 
H      -1.59720000      -0.61270000       1.37210000        1 
H      -0.43660000       0.71330000      -2.02940000        1 
H       0.43590000       0.21830000       1.01390000        1 
