40
Properties=species:S:1:pos:R:3:Z:I:1 pbc="F F F"
O      -1.16620000       0.38990000       0.77280000        8 
O       1.54360000       0.88090000       0.22170000        8 
O      -2.04820000       3.09790000       0.53320000        8 
O       0.58980000      -1.52080000      -1.70900000        8 
O       1.10590000      -1.70610000      -2.90530000        8 
C      -2.25670000      -0.49390000       0.51260000        6 
C       2.53140000      -0.13490000       0.09820000        6 
C      -0.79110000       1.23220000      -0.30920000        6 
C      -0.75800000       2.68720000       0.17610000        6 
C      -3.58070000       0.27700000       0.30500000        6 
C      -2.41120000      -1.36040000       1.77440000        6 
C      -1.98190000      -1.44410000      -0.67790000        6 
C       3.37940000       0.05590000      -1.18020000        6 
C       1.91010000      -1.55140000       0.12620000        6 
C       3.45860000       0.00560000       1.31640000        6 
C       0.59040000       0.80510000      -0.81530000        6 
H      -1.48190000       1.19640000      -1.17660000        1 
H      -0.08240000       2.77810000       1.05650000        1 
H      -0.37580000       3.34400000      -0.63790000        1 
H      -3.74060000       0.99610000       1.13660000        1 
H      -3.59260000       0.83690000      -0.65170000        1 
H      -4.44130000      -0.42610000       0.28110000        1 
H      -2.61170000      -0.72020000       2.66070000        1 
H      -1.47610000      -1.92950000       1.96810000        1 
H      -3.24810000      -2.08460000       1.66720000        1 
H      -1.01380000      -1.96610000      -0.53750000        1 
H      -1.95730000      -0.90800000      -1.64780000        1 
H      -2.78140000      -2.21270000      -0.75310000        1 
H       2.77620000      -0.13240000      -2.09340000        1 
H       4.23650000      -0.65180000      -1.19170000        1 
H       3.77440000       1.09330000      -1.22790000        1 
H       2.70110000      -2.32680000       0.21790000        1 
H       1.35090000      -1.75790000      -0.81010000        1 
H       1.21390000      -1.64920000       0.98670000        1 
H       3.92080000       1.01630000       1.33490000        1 
H       4.27140000      -0.75270000       1.29280000        1 
H       2.88120000      -0.12570000       2.25700000        1 
H       0.90270000       1.44990000      -1.66580000        1 
H      -1.96330000       4.03730000       0.84180000        1 
H       0.62200000      -0.32470000      -1.54760000        1 
