26
Properties=species:S:1:pos:R:3:Z:I:1 pbc="F F F"
O      -3.28360000       2.38620000      -0.65970000        8 
O      -2.95950000       3.19380000       0.32750000        8 
C      -1.52060000      -0.82370000      -0.69630000        6 
C      -0.28310000      -0.03580000      -0.21910000        6 
C       1.03750000      -0.65380000      -0.70640000        6 
C      -1.61850000      -2.20570000      -0.03400000        6 
C       3.78700000       1.30670000       1.20680000        6 
C       2.20720000       0.23630000      -0.38470000        6 
C       2.61650000       0.42890000       0.87850000        6 
C      -2.78430000      -0.01310000      -0.40360000        6 
H      -1.46000000      -0.96080000      -1.79840000        1 
H      -0.28320000       0.02620000       0.89160000        1 
H      -0.34860000       1.00270000      -0.61560000        1 
H       1.20230000      -1.64760000      -0.23870000        1 
H       0.99390000      -0.79170000      -1.80850000        1 
H      -0.77750000      -2.85390000      -0.35540000        1 
H      -2.56090000      -2.71000000      -0.33740000        1 
H      -1.60410000      -2.11340000       1.07330000        1 
H       3.45280000       2.12560000       1.87700000        1 
H       4.55920000       0.70560000       1.73030000        1 
H       4.23940000       1.75360000       0.29550000        1 
H       2.73660000       0.71010000      -1.20690000        1 
H       2.09760000      -0.06090000       1.69760000        1 
H      -2.92890000       0.12460000       0.68980000        1 
H      -3.67940000      -0.50300000      -0.84290000        1 
H      -2.83790000       1.37310000      -0.36030000        1 
