33
Properties=species:S:1:pos:R:3:Z:I:1 pbc="F F F"
O      -1.66460000      -0.46760000       1.21130000        8 
O      -4.39970000       2.65100000       1.51120000        8 
O      -4.04830000       3.75020000       0.87860000        8 
C      -0.71490000      -1.06770000       0.35790000        6 
C      -1.39590000      -1.41040000      -0.96000000        6 
C       0.48460000      -0.12120000       0.18070000        6 
C      -2.94980000      -0.74750000       0.69920000        6 
C      -2.82040000      -1.61230000      -0.55000000        6 
C       1.64390000      -0.78950000      -0.57850000        6 
C       2.82070000       0.16850000      -0.82200000        6 
C       3.60750000       0.47830000       0.46010000        6 
C       4.84430000       1.31880000       0.15570000        6 
C      -3.66260000       0.57010000       0.40390000        6 
H      -0.36560000      -2.00770000       0.84240000        1 
H      -3.53440000      -1.29250000       1.47180000        1 
H      -3.52540000      -1.32840000      -1.36270000        1 
H      -2.98420000      -2.68060000      -0.28480000        1 
H      -1.33500000      -0.56290000      -1.67900000        1 
H      -0.96880000      -2.32800000      -1.42030000        1 
H       0.83420000       0.17760000       1.19140000        1 
H       0.15990000       0.79950000      -0.35230000        1 
H       1.27900000      -1.13310000      -1.57030000        1 
H       1.99580000      -1.68540000      -0.02150000        1 
H       2.45000000       1.11320000      -1.27710000        1 
H       3.50620000      -0.31130000      -1.55490000        1 
H       3.92900000      -0.46960000       0.94410000        1 
H       2.96990000       1.04140000       1.17350000        1 
H       5.52640000       0.76940000      -0.52770000        1 
H       4.55010000       2.28120000      -0.31480000        1 
H       5.38780000       1.53610000       1.09930000        1 
H      -3.11140000       1.15550000      -0.36310000        1 
H      -4.70410000       0.38620000       0.06410000        1 
H      -3.80410000       1.81890000       0.99380000        1 
