24
Properties=species:S:1:pos:R:3:Z:I:1 pbc="F F F"
O       1.77810000      -1.04150000      -2.06480000        8 
O       3.36430000       1.86200000       0.86930000        8 
O       2.29420000       1.25660000       0.40020000        8 
C       0.04420000      -1.10140000      -0.38670000        6 
C      -0.81630000      -0.24070000       0.56770000        6 
C      -1.83910000       0.63520000      -0.17390000        6 
C       1.04650000      -0.24130000      -1.17870000        6 
C       0.78910000      -2.17780000       0.41790000        6 
C      -2.77380000       1.33890000       0.80640000        6 
H      -0.62650000      -1.62110000      -1.10690000        1 
H      -1.37650000      -0.91590000       1.25250000        1 
H      -0.15890000       0.40180000       1.19450000        1 
H      -2.44810000       0.00680000      -0.85960000        1 
H      -1.31930000       1.41160000      -0.77260000        1 
H       1.87470000       0.36810000      -0.33850000        1 
H       0.50870000       0.53060000      -1.76830000        1 
H       0.06580000      -2.81780000       0.96700000        1 
H       1.48140000      -1.71010000       1.15080000        1 
H       1.37330000      -2.83750000      -0.25810000        1 
H      -3.49100000       1.97450000       0.24540000        1 
H      -3.34820000       0.59330000       1.39650000        1 
H      -2.19180000       1.98490000       1.49780000        1 
H       2.49650000      -0.45870000      -2.42230000        1 
H       3.27280000       2.79960000       0.56410000        1 
