4
Properties=species:S:1:pos:R:3:Z:I:1 pbc="F F F"
O      -0.57680000       0.53310000      -0.06930000        8 
O      -1.45470000      -0.43860000       0.06090000        8 
O       1.65010000      -0.14760000      -0.06370000        8 
H       0.38140000       0.05310000       0.07210000        1 
