25
Properties=species:S:1:pos:R:3:Z:I:1 pbc="F F F"
O       1.15530000      -1.34920000       0.18270000        8 
O       4.83560000       1.17510000       0.95770000        8 
O       2.09410000       0.02670000      -1.42630000        8 
O       6.02560000       1.26080000       0.40250000        8 
C      -2.18460000       0.38510000      -0.42660000        6 
C      -0.78540000       0.11910000       0.17280000        6 
C      -0.18570000      -1.21750000      -0.28560000        6 
C      -2.61300000       1.83000000      -0.13910000        6 
C      -3.23850000      -0.58920000       0.12140000        6 
C       2.24340000      -0.69190000      -0.40190000        6 
C       3.59980000      -0.85460000       0.18520000        6 
H      -2.13370000       0.26290000      -1.53140000        1 
H      -0.83600000       0.13710000       1.28380000        1 
H      -0.10000000       0.93530000      -0.14310000        1 
H      -0.21220000      -1.30390000      -1.39400000        1 
H      -0.77660000      -2.05420000       0.14000000        1 
H      -3.60430000       2.03640000      -0.59650000        1 
H      -2.67830000       2.00860000       0.95590000        1 
H      -1.88120000       2.54270000      -0.57600000        1 
H      -4.24510000      -0.32510000      -0.26760000        1 
H      -3.02110000      -1.62660000      -0.20580000        1 
H      -3.26560000      -0.55520000       1.23170000        1 
H       3.90810000      -1.91900000       0.12610000        1 
H       3.59120000      -0.52690000       1.24540000        1 
H       4.30820000       0.29320000       0.38870000        1 
