30
Properties=species:S:1:pos:R:3:Z:I:1 pbc="F F F"
O       0.12830000       3.97260000      -0.28280000        8 
O       0.36630000       2.83000000      -0.89080000        8 
C      -0.33270000       0.45560000      -0.66090000        6 
C      -1.31730000       0.49200000       0.53610000        6 
C      -2.39230000      -0.61300000       0.58840000        6 
C      -1.04800000       0.32090000      -2.01090000        6 
C      -1.82590000      -2.00850000       0.84330000        6 
C       2.82410000      -1.64310000       0.31510000        6 
C       2.23610000       0.79960000       0.90860000        6 
C       1.86310000      -0.48610000       0.21230000        6 
C       0.72500000      -0.62150000      -0.50760000        6 
H       0.25790000       1.63010000      -0.70430000        1 
H      -3.00670000      -0.61640000      -0.33610000        1 
H      -3.08190000      -0.37010000       1.42600000        1 
H      -0.75410000       0.48790000       1.49230000        1 
H      -1.84850000       1.46780000       0.49870000        1 
H      -2.64900000      -2.69120000       1.14240000        1 
H      -1.07230000      -1.98630000       1.65910000        1 
H      -1.37060000      -2.41830000      -0.07990000        1 
H      -0.32090000       0.48090000      -2.83520000        1 
H      -1.84590000       1.08840000      -2.09940000        1 
H      -1.49590000      -0.68790000      -2.13320000        1 
H       3.80690000      -1.34660000      -0.10790000        1 
H       2.46540000      -2.54150000      -0.23160000        1 
H       2.95880000      -1.91760000       1.38230000        1 
H       3.18670000       0.68010000       1.47070000        1 
H       2.38740000       1.60740000       0.16310000        1 
H       1.45260000       1.09760000       1.63300000        1 
H       0.55430000      -1.55970000      -1.02850000        1 
H      -0.85090000       4.09680000      -0.36240000        1 
