28
Properties=species:S:1:pos:R:3:Z:I:1 pbc="F F F"
O       4.00390000       1.14120000       1.11410000        8 
O       4.30710000       1.32530000      -0.15320000        8 
C       1.07080000      -0.02730000       0.26180000        6 
C      -0.32440000      -0.63400000       0.44220000        6 
C      -2.18880000      -0.38160000      -1.89330000        6 
C      -2.24470000       0.55340000      -0.71260000        6 
C       2.14680000      -1.07840000       0.41620000        6 
C      -1.37800000       0.43800000       0.31770000        6 
C      -3.24350000       1.65300000      -0.75980000        6 
C       3.03800000      -1.08990000       1.62610000        6 
C       2.33610000      -1.99850000      -0.53980000        6 
C      -3.75580000       2.24380000       0.32140000        6 
H      -0.47140000      -1.45720000      -0.28570000        1 
H      -0.40370000      -1.08080000       1.45680000        1 
H       1.15360000       0.43960000      -0.74470000        1 
H       1.21450000       0.78010000       1.01260000        1 
H      -2.93270000      -0.10140000      -2.66890000        1 
H      -2.41870000      -1.41800000      -1.56810000        1 
H      -1.18070000      -0.34800000      -2.35870000        1 
H      -1.38500000       1.17600000       1.10940000        1 
H      -3.62320000       1.96100000      -1.72660000        1 
H       2.89820000      -2.03580000       2.19090000        1 
H       2.83280000      -0.23290000       2.30080000        1 
H      -4.49660000       3.02420000       0.20540000        1 
H      -3.48190000       1.94780000       1.32470000        1 
H       1.72000000      -2.00790000      -1.43400000        1 
H       3.11290000      -2.75120000      -0.44150000        1 
H       3.69450000      -0.04050000       1.18670000        1 
