29
Properties=species:S:1:pos:R:3:Z:I:1 pbc="F F F"
O       3.97030000       1.52200000       1.58370000        8 
O       3.56560000       1.14820000       0.38850000        8 
C      -1.06950000       0.09580000       0.53850000        6 
C       1.45850000      -0.06300000      -0.30320000        6 
C       0.27780000       0.80390000       0.21660000        6 
C      -1.74620000      -0.47530000      -0.73150000        6 
C       1.50520000      -0.17570000      -1.83380000        6 
C       1.56910000      -1.43670000       0.36870000        6 
C      -1.99280000       1.09700000       1.25890000        6 
C      -3.11520000      -1.10630000      -0.46690000        6 
H       2.54940000       0.58830000       0.02580000        1 
H      -0.88180000      -0.73770000       1.24920000        1 
H      -1.85290000       0.31940000      -1.50180000        1 
H      -1.11430000      -1.28160000      -1.14660000        1 
H       0.09360000       1.64570000      -0.48660000        1 
H       0.64140000       1.27410000       1.15690000        1 
H      -3.87400000      -0.32510000      -0.25300000        1 
H      -3.05800000      -1.81740000       0.38460000        1 
H      -3.44690000      -1.66220000      -1.36940000        1 
H       2.48280000      -0.60280000      -2.14250000        1 
H       0.71040000      -0.83060000      -2.23500000        1 
H       1.41500000       0.82880000      -2.29820000        1 
H       0.74360000      -2.10830000       0.05540000        1 
H       1.55130000      -1.32240000       1.47320000        1 
H       2.53170000      -1.91440000       0.08850000        1 
H      -2.31500000       1.90230000       0.56430000        1 
H      -2.88900000       0.58510000       1.66670000        1 
H      -1.47010000       1.55980000       2.12320000        1 
H       3.76010000       2.48880000       1.62560000        1 
