26
Properties=species:S:1:pos:R:3:Z:I:1 pbc="F F F"
O      -3.61840000       1.78750000      -0.13370000        8 
O      -3.74930000       1.82240000       1.17530000        8 
C      -0.64690000      -1.43400000       0.15250000        6 
C      -0.22150000      -0.19820000       0.96250000        6 
C      -1.49910000      -1.09490000      -1.08000000        6 
C       2.88990000       1.51150000      -0.66620000        6 
C       2.77500000      -0.46290000       0.99830000        6 
C       2.05810000       0.57830000       0.17530000        6 
C       0.71090000       0.69530000       0.17880000        6 
C      -2.84260000      -0.48860000      -0.69130000        6 
H       0.25700000      -1.98720000      -0.18090000        1 
H      -1.22080000      -2.11810000       0.81510000        1 
H      -1.11870000       0.38860000       1.25290000        1 
H       0.24990000      -0.52660000       1.91210000        1 
H      -1.68300000      -2.02640000      -1.65780000        1 
H      -0.95380000      -0.38960000      -1.74240000        1 
H       3.48280000       0.92150000      -1.39620000        1 
H       2.26730000       2.23920000      -1.22980000        1 
H       3.58450000       2.07930000      -0.01230000        1 
H       2.58890000      -0.28880000       2.07870000        1 
H       2.43150000      -1.47990000       0.71860000        1 
H       3.87160000      -0.41300000       0.82900000        1 
H       0.24390000       1.46970000      -0.42400000        1 
H      -3.41190000      -0.21110000      -1.60320000        1 
H      -3.43780000      -1.21270000      -0.09530000        1 
H      -3.00740000       0.83850000      -0.33610000        1 
