27
Properties=species:S:1:pos:R:3:Z:I:1 pbc="F F F"
O      -3.22040000       2.92930000       0.31510000        8 
O      -2.98870000       1.63470000       0.36180000        8 
C      -1.44860000      -0.28770000      -0.15920000        6 
C       0.01980000       0.18940000      -0.23130000        6 
C       1.04670000      -0.93370000      -0.47820000        6 
C       2.47710000      -0.38830000      -0.57730000        6 
C      -1.69900000      -1.24530000       1.01230000        6 
C      -1.93690000      -0.89550000      -1.48010000        6 
C       2.96640000       0.12010000       0.75330000        6 
C       3.32820000       1.39340000       0.93370000        6 
H      -2.17700000       0.78190000       0.06010000        1 
H       0.81400000      -1.44540000      -1.43550000        1 
H       1.00130000      -1.68880000       0.33530000        1 
H       0.26360000       0.70820000       0.72090000        1 
H       0.10570000       0.94550000      -1.04220000        1 
H       2.52320000       0.40250000      -1.35870000        1 
H       3.15130000      -1.21050000      -0.89930000        1 
H      -1.30830000      -0.80900000       1.95580000        1 
H      -1.21580000      -2.22950000       0.83780000        1 
H      -2.79060000      -1.40930000       1.13390000        1 
H      -1.45950000      -1.87930000      -1.67170000        1 
H      -1.71320000      -0.21010000      -2.32480000        1 
H      -3.03660000      -1.04410000      -1.43840000        1 
H       3.02710000      -0.57050000       1.58950000        1 
H       3.67590000       1.72500000       1.90660000        1 
H       3.27860000       2.11270000       0.12210000        1 
H      -2.68430000       3.30420000       1.05850000        1 
