17
Properties=species:S:1:pos:R:3:Z:I:1 pbc="F F F"
O       3.83200000       0.11740000       0.34710000        8 
O      -0.96900000      -2.02330000      -1.29680000        8 
O       3.80150000       1.41260000       0.11600000        8 
C      -1.72880000       0.93440000       0.59300000        6 
C      -2.25470000      -0.27920000      -0.19440000        6 
C       0.15160000      -0.24830000      -0.14010000        6 
C      -0.23470000       0.81520000       0.53770000        6 
C      -1.00820000      -0.96410000      -0.61670000        6 
C       1.57280000      -0.63610000      -0.36900000        6 
H      -2.05090000       1.88570000       0.11780000        1 
H      -2.07280000       0.90170000       1.64900000        1 
H      -2.86170000      -0.94680000       0.45410000        1 
H      -2.83970000       0.04110000      -1.08320000        1 
H       0.44770000       1.51780000       0.99900000        1 
H       1.78730000      -0.65620000      -1.45780000        1 
H       1.76550000      -1.63750000       0.06920000        1 
H       2.66220000      -0.23440000       0.27540000        1 
