28
Properties=species:S:1:pos:R:3:Z:I:1 pbc="F F F"
O       1.10490000       3.52920000      -0.53300000        8 
O       1.62480000       3.51990000       0.67590000        8 
C      -1.84180000      -0.88390000      -0.20340000        6 
C       0.53950000       0.17000000       0.17420000        6 
C      -0.30390000      -1.05970000      -0.27690000        6 
C       1.77660000      -0.24410000       1.00350000        6 
C      -2.35230000      -0.80430000       1.24310000        6 
C      -2.35380000       0.29940000      -1.03240000        6 
C       2.79190000      -1.09940000       0.23790000        6 
C       0.96130000       1.04970000      -1.01090000        6 
H      -2.28530000      -1.80320000      -0.64740000        1 
H      -0.06810000       0.81220000       0.84410000        1 
H      -0.02680000      -1.34930000      -1.31450000        1 
H      -0.05000000      -1.94270000       0.35030000        1 
H       2.29160000       0.67040000       1.37170000        1 
H       1.43940000      -0.80810000       1.90060000        1 
H       3.60090000      -1.41410000       0.93030000        1 
H       2.31590000      -2.01190000      -0.17650000        1 
H       3.25450000      -0.51790000      -0.58610000        1 
H      -3.46250000      -0.84550000       1.25320000        1 
H      -2.03760000       0.13810000       1.73630000        1 
H      -1.97240000      -1.66430000       1.83460000        1 
H      -3.46200000       0.26070000      -1.09930000        1 
H      -1.94500000       0.25220000      -2.06400000        1 
H      -2.07070000       1.26580000      -0.56530000        1 
H       0.10180000       1.60050000      -1.44170000        1 
H       1.45950000       0.45910000      -1.80840000        1 
H       0.96960000       2.42130000      -0.79610000        1 
