33
Properties=species:S:1:pos:R:3:Z:I:1 pbc="F F F"
O      -1.95240000      -1.54130000      -0.08280000        8 
O      -4.19900000       2.67050000      -0.29690000        8 
O      -3.43460000       3.65230000      -0.72530000        8 
C      -0.94770000      -0.62850000      -0.45660000        6 
C       0.42660000      -1.18010000      -0.04250000        6 
C      -3.09550000      -0.79350000       0.27380000        6 
C       1.58190000      -0.31260000      -0.56390000        6 
C       2.93980000      -0.91860000      -0.17990000        6 
C       4.12310000      -0.14410000      -0.78040000        6 
C      -1.26340000       0.71010000       0.19050000        6 
C      -3.58360000      -1.23900000       1.64870000        6 
C       4.32420000       1.22530000      -0.13190000        6 
C      -2.75520000       0.68920000       0.29690000        6 
H      -0.97620000      -0.51720000      -1.56470000        1 
H      -3.90060000      -0.98490000      -0.46960000        1 
H       0.48220000      -1.25810000       1.06590000        1 
H       0.53080000      -2.20620000      -0.45910000        1 
H       1.49690000       0.70550000      -0.12970000        1 
H       1.51160000      -0.23440000      -1.67110000        1 
H       2.98740000      -1.96320000      -0.55860000        1 
H       3.03800000      -0.95700000       0.92740000        1 
H       3.98360000      -0.02070000      -1.87640000        1 
H       5.04780000      -0.74110000      -0.62510000        1 
H      -0.90650000       1.56340000      -0.42660000        1 
H      -0.83700000       0.77710000       1.21520000        1 
H      -2.79320000      -1.07490000       2.41260000        1 
H      -3.83790000      -2.31980000       1.62460000        1 
H      -4.49240000      -0.66820000       1.93640000        1 
H       4.41070000       1.12480000       0.97090000        1 
H       3.48190000       1.90470000      -0.37720000        1 
H       5.25920000       1.68240000      -0.51880000        1 
H      -3.20110000       1.19070000      -0.59080000        1 
H      -3.44960000       1.80730000      -0.03510000        1 
