33
Properties=species:S:1:pos:R:3:Z:I:1 pbc="F F F"
O      -1.87120000       0.69730000      -0.20420000        8 
O       3.46940000       2.10940000      -1.65680000        8 
O       3.53740000       3.23990000      -0.98650000        8 
C      -1.37490000      -0.40350000      -0.93750000        6 
C      -2.85300000       0.22580000       0.69470000        6 
C      -2.91310000      -1.29540000       0.62430000        6 
C      -2.28210000      -1.60310000      -0.69730000        6 
C       0.07750000      -0.69770000      -0.51780000        6 
C       1.00140000       0.49510000      -0.80830000        6 
C       2.78560000       0.05490000       0.97510000        6 
C      -4.19990000       0.86310000       0.34780000        6 
C       4.29180000       0.00040000       1.19720000        6 
C       2.47220000       0.17580000      -0.51830000        6 
H      -2.57450000       0.53640000       1.72560000        1 
H      -1.39110000      -0.15250000      -2.02110000        1 
H      -2.29760000      -1.73330000       1.44140000        1 
H      -3.94610000      -1.70310000       0.69080000        1 
H      -3.06830000      -1.64120000      -1.48390000        1 
H      -1.73970000      -2.57410000      -0.67910000        1 
H       0.10190000      -0.93470000       0.56770000        1 
H       0.44560000      -1.58470000      -1.07910000        1 
H       0.68820000       1.37900000      -0.21160000        1 
H       0.92060000       0.76660000      -1.88270000        1 
H       2.32660000      -0.86870000       1.38750000        1 
H       2.37620000       0.93300000       1.51970000        1 
H      -4.97670000       0.53800000       1.07240000        1 
H      -4.11500000       1.96930000       0.39630000        1 
H      -4.51360000       0.57380000      -0.67820000        1 
H       4.50530000      -0.07430000       2.28430000        1 
H       4.77230000       0.92100000       0.80220000        1 
H       4.72510000      -0.88710000       0.68820000        1 
H       2.80080000      -0.73110000      -1.07200000        1 
H       2.81920000       1.40560000      -0.98060000        1 
