28
Properties=species:S:1:pos:R:3:Z:I:1 pbc="F F F"
O      -1.34380000      -1.80660000       2.07830000        8 
O      -2.65650000      -1.82240000       1.98680000        8 
C       0.97470000       0.18060000       0.32180000        6 
C      -1.41080000       0.36150000      -0.67320000        6 
C       1.85010000      -0.22920000      -0.88590000        6 
C       1.59760000      -0.26970000       1.64850000        6 
C      -2.53460000      -0.54930000      -1.18160000        6 
C      -2.00740000       1.52940000       0.12120000        6 
C       3.15740000       0.56010000      -0.96380000        6 
C      -0.43210000      -0.43880000       0.20990000        6 
H       0.88900000       1.28810000       0.34980000        1 
H      -0.87970000       0.77010000      -1.55980000        1 
H       2.08130000      -1.31610000      -0.84210000        1 
H       1.29290000      -0.04730000      -1.82940000        1 
H       0.91670000      -0.02240000       2.49140000        1 
H       1.77840000      -1.36620000       1.64720000        1 
H       2.55710000       0.25650000       1.83100000        1 
H       2.95380000       1.65190000      -0.95410000        1 
H       3.82690000       0.29980000      -0.11840000        1 
H       3.68400000       0.30870000      -1.90860000        1 
H      -3.09420000      -0.99450000      -0.33060000        1 
H      -3.24180000       0.02820000      -1.81470000        1 
H      -2.11160000      -1.36840000      -1.80170000        1 
H      -2.73100000       2.09090000      -0.50770000        1 
H      -1.21450000       2.23840000       0.43620000        1 
H      -2.53360000       1.15720000       1.02670000        1 
H      -0.36220000      -1.50790000      -0.09280000        1 
H      -1.00600000      -0.98250000       1.31550000        1 
