26
Properties=species:S:1:pos:R:3:Z:I:1 pbc="F F F"
O       1.05670000       0.39880000      -0.93800000        8 
O       4.47210000       1.90920000       1.50030000        8 
O       1.87060000      -0.72880000       0.91280000        8 
O       4.77420000       0.93490000       0.66890000        8 
C      -2.51710000      -0.67000000      -0.05640000        6 
C      -1.05700000      -0.74510000      -0.56130000        6 
C      -0.26500000       0.56560000      -0.42810000        6 
C      -3.36570000       0.32690000      -0.85730000        6 
C      -2.60220000      -0.37740000       1.44780000        6 
C       3.40890000      -0.44160000      -0.87870000        6 
C       2.07090000      -0.27220000      -0.24520000        6 
H      -2.96110000      -1.67770000      -0.21730000        1 
H      -1.06140000      -1.04920000      -1.63100000        1 
H      -0.52990000      -1.54770000      -0.00180000        1 
H      -0.75850000       1.36120000      -1.02240000        1 
H      -0.21710000       0.90180000       0.62930000        1 
H      -3.26550000       0.13150000      -1.94620000        1 
H      -4.43660000       0.21520000      -0.58350000        1 
H      -3.06170000       1.37360000      -0.64630000        1 
H      -2.29110000       0.66430000       1.67250000        1 
H      -1.95530000      -1.08010000       2.01490000        1 
H      -3.64780000      -0.51040000       1.79890000        1 
H       4.34810000       0.14610000      -0.11050000        1 
H       3.41920000       0.02590000      -1.88560000        1 
H       3.64000000      -1.52260000      -0.97920000        1 
H       4.93200000       1.66760000       2.34330000        1 
