28
Properties=species:S:1:pos:R:3:Z:I:1 pbc="F F F"
O      -2.46880000       2.23690000       1.28120000        8 
O      -2.85300000       2.96130000       0.25200000        8 
C      -0.66910000      -1.20630000      -0.49810000        6 
C       0.24190000       0.03930000      -0.38130000        6 
C       1.68230000      -0.23430000      -0.85090000        6 
C       2.51560000       1.05060000      -0.97650000        6 
C      -2.15610000      -0.83180000      -0.30860000        6 
C      -0.24420000      -2.32540000       0.46850000        6 
C       2.82100000       1.69100000       0.37730000        6 
C      -2.45210000      -0.21370000       1.05650000        6 
H      -0.57650000      -1.60810000      -1.53190000        1 
H      -0.18490000       0.85310000      -1.00830000        1 
H       0.25460000       0.39200000       0.67230000        1 
H       1.65270000      -0.72080000      -1.85020000        1 
H       2.18900000      -0.93090000      -0.14900000        1 
H       1.99190000       1.78500000      -1.62630000        1 
H       3.48010000       0.79680000      -1.46750000        1 
H      -2.79300000      -1.73280000      -0.44580000        1 
H      -2.44810000      -0.10290000      -1.09550000        1 
H      -0.15150000      -1.94240000       1.50680000        1 
H      -0.98690000      -3.15140000       0.45470000        1 
H       0.73240000      -2.75240000       0.15960000        1 
H       1.89320000       2.07950000       0.84600000        1 
H       3.29950000       0.95430000       1.05700000        1 
H       3.51810000       2.54320000       0.23320000        1 
H      -3.49070000       0.17840000       1.07650000        1 
H      -2.34150000      -0.96900000       1.86220000        1 
H      -2.45590000       1.16050000       0.88610000        1 
