26
Properties=species:S:1:pos:R:3:Z:I:1 pbc="F F F"
O      -3.60200000       1.83010000       0.24250000        8 
O      -3.48050000       2.86420000       1.04720000        8 
C       2.23350000      -0.28680000      -0.68900000        6 
C       0.72480000      -0.51390000      -0.44340000        6 
C       0.33610000      -0.37700000       1.03770000        6 
C       2.59690000      -0.68090000      -2.12660000        6 
C       2.64330000       1.17090000      -0.42930000        6 
C      -3.52660000      -0.46240000       0.98280000        6 
C      -1.09010000      -0.78950000       1.26650000        6 
C      -2.10020000      -0.07660000       0.75680000        6 
H       2.81490000      -0.94270000      -0.00350000        1 
H       0.45870000      -1.54200000      -0.77730000        1 
H       0.13260000       0.20320000      -1.05420000        1 
H       0.99380000      -1.02780000       1.65350000        1 
H       0.46410000       0.67160000       1.38040000        1 
H       2.04080000      -0.05430000      -2.85690000        1 
H       2.34870000      -1.74860000      -2.30740000        1 
H       3.68680000      -0.55070000      -2.29810000        1 
H       2.52270000       1.42700000       0.64320000        1 
H       2.03000000       1.86670000      -1.04120000        1 
H       3.71400000       1.32050000      -0.68560000        1 
H      -3.71610000      -1.47540000       0.56920000        1 
H      -3.75430000      -0.45600000       2.06970000        1 
H      -4.18680000       0.26700000       0.47040000        1 
H      -1.29530000      -1.66800000       1.87260000        1 
H      -2.99000000       1.03130000       0.72010000        1 
