26
Properties=species:S:1:pos:R:3:Z:I:1 pbc="F F F"
O      -0.19200000       1.54800000       2.21740000        8 
O      -0.00120000       2.76350000       1.75030000        8 
C      -1.54360000      -0.62770000      -0.69970000        6 
C       0.72520000      -0.43580000       0.52330000        6 
C       1.45310000       0.64020000      -0.28720000        6 
C      -2.86150000       0.14370000      -0.79720000        6 
C      -1.81220000      -2.13880000      -0.68100000        6 
C      -0.78550000      -0.17330000       0.56160000        6 
C       2.93930000       0.40920000      -0.24360000        6 
C       3.78110000       1.30730000       0.27600000        6 
H      -0.94840000      -0.38820000      -1.60650000        1 
H       1.13100000       0.60500000      -1.34860000        1 
H       1.19420000       1.64430000       0.11700000        1 
H       0.94160000      -1.44380000       0.11010000        1 
H       1.10630000      -0.40930000       1.56780000        1 
H      -2.66100000       1.23600000      -0.83600000        1 
H      -3.40570000      -0.14090000      -1.72310000        1 
H      -3.50890000      -0.07090000       0.08060000        1 
H      -2.36880000      -2.43830000      -1.59460000        1 
H      -2.41300000      -2.42100000       0.21040000        1 
H      -0.85890000      -2.70600000      -0.66440000        1 
H      -1.23970000      -0.61250000       1.47710000        1 
H       3.33860000      -0.51540000      -0.65050000        1 
H       4.84740000       1.10620000       0.28860000        1 
H       3.42020000       2.24300000       0.69190000        1 
H      -0.27740000       0.87560000       1.26050000        1 
