33
Properties=species:S:1:pos:R:3:Z:I:1 pbc="F F F"
O      -1.60030000       0.80560000      -0.19340000        8 
O       1.29960000       2.74320000      -0.93510000        8 
O       2.38330000       3.28660000      -0.42300000        8 
C      -1.29830000      -0.29200000      -1.03030000        6 
C      -2.61610000       0.41210000       0.70520000        6 
C      -2.89550000      -1.07570000       0.53050000        6 
C      -2.35870000      -1.36780000      -0.83550000        6 
C       2.79400000      -0.11960000       0.96920000        6 
C       0.10950000      -0.81800000      -0.70510000        6 
C       2.57680000      -0.17630000      -0.54740000        6 
C      -3.86620000       1.25740000       0.45290000        6 
C       4.23860000      -0.45300000       1.33060000        6 
C       1.16240000       0.27410000      -0.92720000        6 
H      -2.26940000       0.60250000       1.74460000        1 
H      -1.31900000       0.04580000      -2.09020000        1 
H      -3.97350000      -1.33810000       0.61300000        1 
H      -2.32250000      -1.65620000       1.28740000        1 
H      -3.16790000      -1.23670000      -1.58810000        1 
H      -1.95920000      -2.40340000      -0.90890000        1 
H       2.12750000      -0.84630000       1.47980000        1 
H       2.55550000       0.90000000       1.34330000        1 
H       0.34220000      -1.68530000      -1.36140000        1 
H       0.13340000      -1.15880000       0.35140000        1 
H       2.77120000      -1.20290000      -0.92890000        1 
H       3.29990000       0.51200000      -1.03700000        1 
H      -3.62220000       2.33390000       0.57570000        1 
H      -4.24480000       1.09270000      -0.57870000        1 
H      -4.66260000       0.99230000       1.18070000        1 
H       4.93240000       0.27970000       0.86590000        1 
H       4.49700000      -1.47560000       0.98180000        1 
H       4.36530000      -0.41100000       2.43290000        1 
H       1.15010000       0.58690000      -1.99430000        1 
H       1.43750000       1.59190000      -0.76030000        1 
