23
Properties=species:S:1:pos:R:3:Z:I:1 pbc="F F F"
O      -1.84360000       0.19620000      -1.65240000        8 
O       3.00680000       0.53390000       0.65190000        8 
O       4.16460000       1.15370000       0.56660000        8 
C      -0.74180000      -0.83180000       0.23860000        6 
C       0.20970000       0.28630000       0.73850000        6 
C       0.72830000       1.24370000      -0.34660000        6 
C      -2.05510000      -0.27550000      -0.35050000        6 
C      -1.05780000      -1.78400000       1.40150000        6 
C       1.59050000       0.53210000      -1.38380000        6 
H      -0.22690000      -1.43740000      -0.53840000        1 
H       1.09190000      -0.17880000       1.23200000        1 
H      -0.31210000       0.88950000       1.51390000        1 
H      -0.10620000       1.78160000      -0.84110000        1 
H       1.35760000       2.01320000       0.15020000        1 
H      -2.82280000      -1.08110000      -0.39200000        1 
H      -2.44890000       0.54200000       0.29510000        1 
H      -1.59910000      -1.24770000       2.21070000        1 
H      -1.68570000      -2.63010000       1.04910000        1 
H      -0.12000000      -2.21010000       1.81800000        1 
H       0.96560000      -0.09910000      -2.04890000        1 
H       2.12270000       1.28000000      -2.00860000        1 
H      -2.70970000       0.57580000      -1.95340000        1 
H       2.49210000       0.74750000      -0.35020000        1 
