24
Properties=species:S:1:pos:R:3:Z:I:1 pbc="F F F"
O       2.33450000      -1.71060000       0.45950000        8 
O       3.91270000       1.15940000       0.29000000        8 
O       3.88110000      -0.02010000       0.87270000        8 
C       0.33560000      -0.49600000      -0.16900000        6 
C      -1.04510000      -0.05180000       0.36740000        6 
C      -1.69330000       1.04780000      -0.48870000        6 
C       1.03200000      -1.39930000       0.86690000        6 
C       0.21090000      -1.22670000      -1.51720000        6 
C      -2.96980000       1.57230000       0.16330000        6 
H       0.96760000       0.40820000      -0.31530000        1 
H      -0.91680000       0.34490000       1.39920000        1 
H      -1.72760000      -0.92860000       0.42650000        1 
H      -1.95540000       0.64810000      -1.49070000        1 
H      -0.98380000       1.89380000      -0.61790000        1 
H       0.46010000      -2.34370000       0.99440000        1 
H       1.07470000      -0.89150000       1.85560000        1 
H      -0.16780000      -0.54080000      -2.30210000        1 
H      -0.47640000      -2.09550000      -1.43090000        1 
H       1.20360000      -1.59080000      -1.85630000        1 
H      -2.74220000       2.02080000       1.15380000        1 
H      -3.42370000       2.35300000      -0.48280000        1 
H      -3.70300000       0.74790000       0.29330000        1 
H       3.03380000      -0.63890000       0.65680000        1 
H       3.35830000       1.73830000       0.87150000        1 
