26
Properties=species:S:1:pos:R:3:Z:I:1 pbc="F F F"
O      -2.42770000       1.60170000       0.52220000        8 
O      -2.42860000       2.46810000      -0.46830000        8 
C      -1.06130000      -0.21030000      -0.52960000        6 
C      -0.22250000       0.22580000       0.67260000        6 
C       3.52750000       1.02410000      -0.09070000        6 
C       2.50220000      -0.97030000       1.19160000        6 
C      -3.29390000      -1.14940000      -1.24720000        6 
C       2.30370000       0.31740000       0.43300000        6 
C      -2.39790000      -0.79260000      -0.06750000        6 
C       1.07650000       0.83930000       0.20560000        6 
H      -0.06380000      -0.64390000       1.34260000        1 
H      -0.77880000       0.99290000       1.25340000        1 
H      -0.50450000      -0.97700000      -1.11270000        1 
H      -1.25140000       0.66900000      -1.18390000        1 
H       4.07260000       0.35290000      -0.78710000        1 
H       4.19570000       1.28360000       0.75710000        1 
H       3.27460000       1.95960000      -0.63430000        1 
H       2.12530000      -0.86180000       2.23040000        1 
H       3.57920000      -1.23690000       1.24400000        1 
H       1.96720000      -1.79870000       0.68080000        1 
H      -2.80550000      -1.91650000      -1.88510000        1 
H      -3.50670000      -0.24390000      -1.85360000        1 
H      -4.25480000      -1.55560000      -0.86840000        1 
H      -2.22920000      -1.69610000       0.55820000        1 
H       0.99290000       1.76440000      -0.35910000        1 
H      -2.39090000       0.55420000      -0.00380000        1 
