22
Properties=species:S:1:pos:R:3:Z:I:1 pbc="F F F"
O       1.13000000       0.04610000      -0.15740000        8 
O      -1.52010000       2.82280000       0.45920000        8 
O       0.49490000      -2.13440000       0.25600000        8 
O      -2.16150000       3.13480000       1.56520000        8 
C      -1.18880000      -0.70700000      -0.71540000        6 
C       2.45290000      -0.12770000       0.33930000        6 
C      -2.06430000      -1.96550000      -0.78930000        6 
C       3.21770000       1.18070000       0.22030000        6 
C       0.18830000      -0.98740000      -0.17440000        6 
C      -1.86120000       0.36430000       0.14010000        6 
H      -1.07380000      -0.30630000      -1.74570000        1 
H       2.41560000      -0.43540000       1.40690000        1 
H       2.97480000      -0.91320000      -0.24930000        1 
H      -1.58270000      -2.72820000      -1.43800000        1 
H      -2.22060000      -2.39740000       0.22290000        1 
H      -3.05440000      -1.71620000      -1.22750000        1 
H       4.25010000       1.04820000       0.60730000        1 
H       3.26850000       1.49500000      -0.84370000        1 
H       2.70950000       1.97210000       0.81090000        1 
H      -2.82980000       0.67480000      -0.30640000        1 
H      -2.02420000       0.00370000       1.17890000        1 
H      -1.52110000       1.67640000       0.44020000        1 
