28
Properties=species:S:1:pos:R:3:Z:I:1 pbc="F F F"
O       3.86390000      -1.53170000       1.26950000        8 
O       3.47490000      -2.77170000       1.06230000        8 
C      -1.43400000       0.49430000       0.42810000        6 
C       0.05950000       0.88490000       0.30850000        6 
C      -1.97750000      -0.10710000      -0.88960000        6 
C       1.00190000      -0.29660000       0.00690000        6 
C      -1.68660000      -0.43190000       1.63030000        6 
C      -3.50560000      -0.13420000      -0.93810000        6 
C       2.86690000       0.95310000      -1.21960000        6 
C       2.47550000       0.12570000       0.00120000        6 
H      -1.98350000       1.44230000       0.62480000        1 
H      -1.62240000       0.50420000      -1.74800000        1 
H      -1.59720000      -1.14200000      -1.02980000        1 
H       0.15670000       1.64580000      -0.49530000        1 
H       0.37830000       1.37350000       1.25560000        1 
H       0.88880000      -1.07480000       0.78900000        1 
H       0.75010000      -0.75670000      -0.97180000        1 
H      -3.91120000      -0.83050000      -0.17520000        1 
H      -3.83670000      -0.48660000      -1.93770000        1 
H      -3.91870000       0.88280000      -0.76890000        1 
H      -1.32940000      -1.46290000       1.42510000        1 
H      -2.77140000      -0.47610000       1.86050000        1 
H      -1.16990000      -0.04430000       2.53410000        1 
H       3.96770000       1.09250000      -1.22470000        1 
H       2.38630000       1.95260000      -1.18690000        1 
H       2.57370000       0.42800000      -2.15300000        1 
H       2.75000000       0.65180000       0.94120000        1 
H       3.14990000      -0.88430000       0.60150000        1 
