27
Properties=species:S:1:pos:R:3:Z:I:1 pbc="F F F"
O      -2.22420000       2.40870000       2.30210000        8 
O      -1.90770000       1.15220000       2.07240000        8 
C      -1.69980000      -0.58090000       0.26050000        6 
C      -0.48910000      -0.25870000      -0.64300000        6 
C       0.82090000      -0.12650000       0.14750000        6 
C      -3.00340000      -0.43320000      -0.53320000        6 
C      -1.61120000      -1.99170000       0.86030000        6 
C       4.32510000       0.95720000      -1.09890000        6 
C       1.94920000       0.32420000      -0.74090000        6 
C       3.17910000       0.50990000      -0.24110000        6 
H      -1.73790000       0.28480000       1.24620000        1 
H      -0.37760000      -1.04530000      -1.42230000        1 
H      -0.67930000       0.70790000      -1.16070000        1 
H       1.09600000      -1.10640000       0.59110000        1 
H       0.68870000       0.61460000       0.96580000        1 
H      -3.87690000      -0.62960000       0.12420000        1 
H      -3.09840000       0.60200000      -0.92440000        1 
H      -3.02620000      -1.14510000      -1.38650000        1 
H      -2.53130000      -2.22010000       1.43920000        1 
H      -1.49400000      -2.75350000       0.06000000        1 
H      -0.75590000      -2.06420000       1.56230000        1 
H       5.12840000       0.19240000      -1.06330000        1 
H       4.72310000       1.91580000      -0.70610000        1 
H       4.01920000       1.10460000      -2.15690000        1 
H       3.36600000       0.33500000       0.81500000        1 
H       1.76420000       0.49890000      -1.79830000        1 
H      -2.54680000       2.74690000       1.42910000        1 
