28
Properties=species:S:1:pos:R:3:Z:I:1 pbc="F F F"
O       4.23450000       1.27400000      -0.30740000        8 
O       3.91810000       1.90170000      -1.41990000        8 
C      -1.43410000       0.28300000       0.21550000        6 
C       1.05460000      -0.51340000      -0.19640000        6 
C      -0.15650000      -0.41390000       0.77990000        6 
C      -1.17100000       1.78220000      -0.05020000        6 
C      -1.92450000      -0.39480000      -1.08010000        6 
C      -2.55240000       0.17110000       1.27450000        6 
C       1.16970000      -1.91070000      -0.82020000        6 
C       2.36490000      -0.18380000       0.52220000        6 
H       0.95860000       0.21430000      -1.02630000        1 
H      -0.42370000      -1.43360000       1.13820000        1 
H       0.14770000       0.14010000       1.69680000        1 
H      -0.44530000       1.93410000      -0.87450000        1 
H      -0.77380000       2.27790000       0.86160000        1 
H      -2.11220000       2.29700000      -0.34140000        1 
H      -2.88610000       0.05170000      -1.41400000        1 
H      -1.19440000      -0.26370000      -1.90560000        1 
H      -2.08690000      -1.48150000      -0.91420000        1 
H      -2.78860000      -0.89420000       1.48660000        1 
H      -3.48350000       0.66630000       0.92260000        1 
H      -2.24250000       0.65500000       2.22620000        1 
H       1.33220000      -2.68000000      -0.03450000        1 
H       2.02500000      -1.94170000      -1.52900000        1 
H       0.25050000      -2.16900000      -1.38330000        1 
H       2.52610000      -0.85840000       1.39070000        1 
H       2.37020000       0.87410000       0.86170000        1 
H       3.32330000       0.61620000      -0.07960000        1 
