6
Properties=species:S:1:pos:R:3:Z:I:1 pbc="F F F"
O       1.43620000      -0.40150000      -0.37350000        8 
O       2.24550000       0.25580000       0.42950000        8 
C      -0.95500000       0.03820000      -0.01840000        6 
H       0.43150000      -0.25010000       0.06130000        1 
H      -1.38400000       0.94810000      -0.48600000        1 
H      -1.77420000      -0.59050000       0.38710000        1 
