20
Properties=species:S:1:pos:R:3:Z:I:1 pbc="F F F"
O       1.78900000      -0.53410000       1.66180000        8 
O       1.75000000      -1.83990000       1.50270000        8 
C      -1.43860000      -0.26640000       0.91400000        6 
C      -0.97300000      -1.37960000      -0.02630000        6 
C      -0.65060000       0.98390000       0.54550000        6 
C       0.08790000      -0.77580000      -0.93760000        6 
C       1.14880000       1.52590000      -1.17070000        6 
C       0.55710000       0.48040000      -0.22500000        6 
H      -1.22680000      -0.54960000       1.96870000        1 
H      -2.53050000      -0.08590000       0.80560000        1 
H      -1.82270000      -1.77460000      -0.62500000        1 
H      -0.53410000      -2.21400000       0.56400000        1 
H      -0.33110000       1.54290000       1.45080000        1 
H      -1.27970000       1.64170000      -0.09530000        1 
H       0.93570000      -1.47670000      -1.09220000        1 
H      -0.36960000      -0.52280000      -1.92040000        1 
H       2.03010000       1.09920000      -1.69380000        1 
H       1.47960000       2.41100000      -0.58800000        1 
H       0.39950000       1.84770000      -1.92560000        1 
H       0.97880000      -0.11320000       0.88690000        1 
