29
Properties=species:S:1:pos:R:3:Z:I:1 pbc="F F F"
O       0.00220000       3.33090000       0.62480000        8 
O      -1.08350000       3.20840000      -0.10870000        8 
C       0.21880000       0.22690000       0.35860000        6 
C       1.27110000      -0.82880000      -0.03800000        6 
C       2.53600000      -0.20360000      -0.64590000        6 
C       3.49970000      -1.28010000      -1.13740000        6 
C      -2.42770000       0.52370000      -1.08510000        6 
C      -3.42920000      -1.12220000       0.66800000        6 
C      -2.25020000      -0.35000000       0.13330000        6 
C      -1.06160000      -0.47160000       0.76670000        6 
C       0.68730000       1.09230000       1.52960000        6 
H       0.05310000       0.89980000      -0.50740000        1 
H       0.81930000      -1.51080000      -0.79300000        1 
H       1.54790000      -1.44130000       0.84910000        1 
H       3.05930000       0.41370000       0.11460000        1 
H       2.26020000       0.44830000      -1.50320000        1 
H       4.40720000      -0.80110000      -1.56170000        1 
H       3.02100000      -1.89550000      -1.92860000        1 
H       3.80540000      -1.93740000      -0.29560000        1 
H      -1.75400000       0.18000000      -1.89840000        1 
H      -2.19960000       1.58000000      -0.82980000        1 
H      -3.46870000       0.48450000      -1.46760000        1 
H      -3.63450000      -0.81550000       1.71560000        1 
H      -3.20650000      -2.21010000       0.64550000        1 
H      -4.34580000      -0.94330000       0.06850000        1 
H      -1.00270000      -1.12680000       1.63370000        1 
H       1.01880000       0.47100000       2.38940000        1 
H       1.49610000       1.78780000       1.22280000        1 
H       0.16030000       2.29040000       1.08000000        1 
