41
Properties=species:S:1:pos:R:3:Z:I:1 pbc="F F F"
O      -0.20230000      -1.46370000       0.61350000        8 
O       1.02790000       0.98040000       0.14570000        8 
O      -1.50730000       1.25490000       2.64450000        8 
O      -1.23870000       3.97850000       1.74580000        8 
O      -0.30490000       3.21180000       2.26730000        8 
C       1.73540000       1.56360000      -0.94710000        6 
C      -0.97290000      -2.54370000       0.08940000        6 
C      -0.91990000      -0.25980000       0.85420000        6 
C      -0.36610000       0.83410000      -0.06960000        6 
C      -0.75500000       0.11510000       2.33420000        6 
C       1.08460000       2.87070000      -1.46460000        6 
C       3.13480000       1.91320000      -0.41300000        6 
C       1.90490000       0.54680000      -2.09830000        6 
C      -1.58820000      -2.20650000      -1.28950000        6 
C       0.01150000      -3.70900000      -0.11070000        6 
C      -2.06170000      -3.01120000       1.08390000        6 
H      -2.01010000      -0.33350000       0.65870000        1 
H      -0.61220000       0.54450000      -1.11120000        1 
H      -0.88250000       1.79480000       0.14400000        1 
H       0.31750000       0.27310000       2.58530000        1 
H      -1.12220000      -0.72440000       2.96140000        1 
H       0.12290000       2.66940000      -1.98170000        1 
H       0.89500000       3.56650000      -0.61930000        1 
H       1.75130000       3.37690000      -2.19600000        1 
H       3.76850000       2.36610000      -1.20650000        1 
H       3.64350000       0.99970000      -0.03560000        1 
H       3.05620000       2.63470000       0.42890000        1 
H       2.64400000       0.91590000      -2.84200000        1 
H       0.95510000       0.37560000      -2.64430000        1 
H       2.26100000      -0.42740000      -1.69960000        1 
H      -2.03070000      -3.11550000      -1.75130000        1 
H      -2.39940000      -1.45460000      -1.21250000        1 
H      -0.80540000      -1.81270000      -1.97260000        1 
H      -0.50180000      -4.60560000      -0.52180000        1 
H       0.82070000      -3.41390000      -0.81350000        1 
H       0.48300000      -3.98660000       0.85690000        1 
H      -2.51120000      -3.97060000       0.74760000        1 
H      -1.61940000      -3.16490000       2.09140000        1 
H      -2.89050000      -2.28030000       1.17220000        1 
H      -0.69440000       2.25970000       2.56640000        1 
H      -1.62090000       3.43800000       1.00940000        1 
