27
Properties=species:S:1:pos:R:3:Z:I:1 pbc="F F F"
O      -3.74480000       3.15340000       0.57600000        8 
O      -3.44340000       1.88080000       0.42980000        8 
C      -1.88890000      -0.02900000      -0.07520000        6 
C       2.88480000      -0.39020000      -0.49060000        6 
C       1.93030000      -0.24520000       0.69760000        6 
C      -2.48970000      -1.13070000       0.80370000        6 
C      -1.96450000      -0.39830000      -1.56030000        6 
C       4.31840000      -0.05290000      -0.09130000        6 
C      -0.47360000       0.29980000       0.34060000        6 
C       0.52710000      -0.59550000       0.28360000        6 
H      -2.61490000       1.05390000       0.09900000        1 
H       2.56830000       0.29300000      -1.30910000        1 
H       2.85440000      -1.43450000      -0.87200000        1 
H       1.98300000       0.79470000       1.09020000        1 
H       2.23800000      -0.93600000       1.51180000        1 
H       4.38240000       0.99660000       0.26760000        1 
H       4.66650000      -0.73730000       0.71150000        1 
H       4.98620000      -0.16850000      -0.97080000        1 
H      -3.56020000      -1.27640000       0.54630000        1 
H      -1.95520000      -2.09380000       0.65990000        1 
H      -2.42720000      -0.83880000       1.87360000        1 
H      -3.02500000      -0.53010000      -1.86240000        1 
H      -1.52720000       0.41610000      -2.17640000        1 
H      -1.41590000      -1.34180000      -1.76680000        1 
H       0.33490000      -1.60460000      -0.06900000        1 
H      -0.27490000       1.30760000       0.69380000        1 
H      -2.86890000       3.60790000       0.65880000        1 
