23
Properties=species:S:1:pos:R:3:Z:I:1 pbc="F F F"
O       3.24070000       2.49710000       0.77660000        8 
O       1.56090000       1.52820000      -0.43950000        8 
O       3.84190000       1.83180000       1.73980000        8 
C       0.72980000      -0.68260000       0.05900000        6 
C      -0.57270000      -0.13440000       0.69450000        6 
C      -1.72300000       0.09810000      -0.30090000        6 
C       1.34050000       0.26400000      -0.98970000        6 
C       0.53780000      -2.08780000      -0.52920000        6 
C      -2.97080000       0.60660000       0.41590000        6 
H       1.47080000      -0.77890000       0.88400000        1 
H      -0.34450000       0.82260000       1.21310000        1 
H      -0.91110000      -0.84840000       1.47770000        1 
H      -1.98110000      -0.84850000      -0.81990000        1 
H      -1.42770000       0.85250000      -1.05970000        1 
H       2.31480000      -0.14300000      -1.33520000        1 
H       0.68010000       0.35900000      -1.87650000        1 
H       0.06270000      -2.75880000       0.21780000        1 
H      -0.09190000      -2.05770000      -1.44300000        1 
H       1.52380000      -2.52070000      -0.80220000        1 
H      -3.78390000       0.76940000      -0.32260000        1 
H      -2.75730000       1.56990000       0.92660000        1 
H      -3.31610000      -0.13740000       1.16520000        1 
H       2.57630000       1.79900000       0.34820000        1 
