26
Properties=species:S:1:pos:R:3:Z:I:1 pbc="F F F"
O      -3.83390000       2.23550000       0.02040000        8 
O      -3.76890000       2.53930000       1.29920000        8 
C       2.29040000       0.05570000       0.16060000        6 
C      -1.51740000       0.54210000       0.79610000        6 
C       2.35860000      -0.37900000      -1.30860000        6 
C       3.27810000      -0.75970000       1.00230000        6 
C      -2.26080000      -1.19200000      -0.91240000        6 
C      -2.48460000       0.20520000      -0.34090000        6 
C       0.88590000      -0.09980000       0.69660000        6 
C      -0.11060000       0.69890000       0.28390000        6 
H       2.58590000       1.12610000       0.23190000        1 
H      -1.58400000      -0.24000000       1.58400000        1 
H      -1.83220000       1.50280000       1.25420000        1 
H       2.04990000      -1.44130000      -1.41670000        1 
H       1.69070000       0.25260000      -1.93190000        1 
H       3.39420000      -0.26480000      -1.69420000        1 
H       3.23870000      -0.42960000       2.06260000        1 
H       3.03560000      -1.84350000       0.95390000        1 
H       4.31420000      -0.60740000       0.63150000        1 
H      -3.03650000      -1.40220000      -1.67760000        1 
H      -1.26040000      -1.26220000      -1.38980000        1 
H      -2.34120000      -1.95280000      -0.10770000        1 
H      -2.43370000       0.96960000      -1.14680000        1 
H       0.68180000      -0.87020000       1.43650000        1 
H       0.08830000       1.47960000      -0.44540000        1 
H      -3.42840000       1.13690000      -0.04160000        1 
