29
Properties=species:S:1:pos:R:3:Z:I:1 pbc="F F F"
O       3.89320000       2.30960000       1.11520000        8 
O       3.12470000       1.40850000       0.54150000        8 
C       0.35350000      -0.93790000       0.22210000        6 
C       0.87710000       0.51590000       0.06810000        6 
C      -0.94930000      -0.28890000       0.75930000        6 
C      -0.11870000       0.94420000       1.16480000        6 
C       0.34330000       1.15070000      -1.26220000        6 
C       1.11920000      -1.71870000       1.31920000        6 
C       0.26460000      -1.83590000      -1.04380000        6 
C      -3.27370000      -0.11750000      -0.50600000        6 
C      -1.80740000       0.18200000      -0.42400000        6 
C      -1.17270000       0.90190000      -1.39490000        6 
H       2.14500000       0.71880000       0.34000000        1 
H      -1.47270000      -0.81710000       1.58540000        1 
H       0.30610000       0.86360000       2.18850000        1 
H      -0.60930000       1.93530000       1.02080000        1 
H       0.87730000       0.71580000      -2.13270000        1 
H       0.53410000       2.24470000      -1.25180000        1 
H       0.57760000      -2.65760000       1.56290000        1 
H       2.13580000      -1.98130000       0.95640000        1 
H       1.23820000      -1.14740000       2.26170000        1 
H       1.28880000      -2.06410000      -1.40780000        1 
H      -0.29480000      -1.40700000      -1.89430000        1 
H      -0.23490000      -2.79340000      -0.78430000        1 
H      -3.84910000       0.83160000      -0.53470000        1 
H      -3.60270000      -0.70760000       0.37470000        1 
H      -3.48480000      -0.70270000      -1.42550000        1 
H      -1.71320000       1.27640000      -2.25880000        1 
H       3.50500000       3.17810000       0.84030000        1 
