27
Properties=species:S:1:pos:R:3:Z:I:1 pbc="F F F"
O       2.88570000      -0.15160000       2.28790000        8 
O       2.49380000       0.23600000       1.09290000        8 
C      -2.08000000      -0.28150000       0.61640000        6 
C      -0.62190000      -0.09030000       0.14610000        6 
C       1.99640000       0.38710000      -1.35060000        6 
C      -2.10780000      -0.91870000       2.01140000        6 
C      -2.84360000       1.05180000       0.63690000        6 
C       2.80640000      -0.73970000      -1.97820000        6 
C       0.62480000       0.45600000      -1.97590000        6 
C      -0.53260000       0.25050000      -1.32260000        6 
H      -2.59880000      -0.97620000      -0.08170000        1 
H       1.96740000       0.20410000      -0.07700000        1 
H       2.51500000       1.35210000      -1.53400000        1 
H      -0.14580000       0.71620000       0.74580000        1 
H      -0.05900000      -1.03500000       0.31290000        1 
H       2.30720000      -1.71530000      -1.79610000        1 
H       2.91360000      -0.57870000      -3.07240000        1 
H       3.81790000      -0.76720000      -1.52150000        1 
H      -1.60570000      -1.90950000       1.99140000        1 
H      -3.15690000      -1.07370000       2.34270000        1 
H      -1.59010000      -0.26890000       2.74970000        1 
H      -2.35740000       1.77170000       1.33000000        1 
H      -2.87850000       1.50150000      -0.37710000        1 
H      -3.89060000       0.88750000       0.97030000        1 
H       0.57460000       0.68370000      -3.03720000        1 
H      -1.44970000       0.31700000      -1.90150000        1 
H       3.01560000       0.69100000       2.79170000        1 
