28
Properties=species:S:1:pos:R:3:Z:I:1 pbc="F F F"
O      -1.63310000       2.47920000      -0.93440000        8 
O      -2.89060000       2.74990000      -1.21250000        8 
C      -0.92200000      -0.95650000      -0.28020000        6 
C       0.17820000      -0.63170000      -1.32450000        6 
C       1.23350000       0.42650000      -0.93870000        6 
C       2.17190000      -0.01610000       0.19220000        6 
C      -0.46550000      -1.97990000       0.77380000        6 
C       3.41920000       0.86200000       0.25130000        6 
C      -2.88050000       0.10400000       0.98690000        6 
C      -1.50510000       0.31700000       0.36090000        6 
H      -1.73810000      -1.44930000      -0.85540000        1 
H       0.69240000      -1.56680000      -1.63740000        1 
H      -0.33460000      -0.25180000      -2.23590000        1 
H       0.74540000       1.38810000      -0.67200000        1 
H       1.84150000       0.62160000      -1.84980000        1 
H       2.48420000      -1.07250000       0.04320000        1 
H       1.65010000       0.07580000       1.16570000        1 
H       0.16030000      -1.51620000       1.55970000        1 
H       0.10270000      -2.80730000       0.29860000        1 
H      -1.35110000      -2.42830000       1.27120000        1 
H       4.05930000       0.54220000       1.10050000        1 
H       3.13510000       1.92570000       0.40080000        1 
H       4.00470000       0.76640000      -0.68790000        1 
H      -2.81310000      -0.58760000       1.85230000        1 
H      -3.27240000       1.07920000       1.34310000        1 
H      -3.58750000      -0.30610000       0.23550000        1 
H      -0.80870000       0.74980000       1.11110000        1 
H      -1.67640000       1.48250000      -0.31810000        1 
