40
Properties=species:S:1:pos:R:3:Z:I:1 pbc="F F F"
O      -0.97420000       0.44260000      -1.24890000        8 
O       1.17570000      -0.77330000       0.07170000        8 
O      -1.63060000       4.59450000       2.35990000        8 
O      -0.32120000       3.02060000       1.22610000        8 
O      -2.02760000       5.52440000       1.51750000        8 
C       2.44650000      -1.22820000       0.53370000        6 
C      -2.10810000      -0.42000000      -1.14760000        6 
C      -0.48600000       0.96180000      -0.01760000        6 
C       1.00910000       0.63300000       0.09500000        6 
C       2.54000000      -2.71010000       0.13280000        6 
C       3.63760000      -0.48310000      -0.11890000        6 
C       2.53400000      -1.14430000       2.07350000        6 
C      -3.32930000       0.28250000      -0.50730000        6 
C      -1.77300000      -1.73130000      -0.39860000        6 
C      -2.48900000      -0.79230000      -2.59110000        6 
C      -0.70210000       2.48190000      -0.00470000        6 
H      -0.98290000       0.54200000       0.88210000        1 
H       1.53730000       1.08470000      -0.77370000        1 
H       1.39870000       1.08430000       1.03110000        1 
H      -1.77400000       2.71260000      -0.17240000        1 
H      -0.11460000       2.96500000      -0.81460000        1 
H       2.46850000      -2.81500000      -0.97150000        1 
H       1.70430000      -3.28620000       0.58620000        1 
H       3.50010000      -3.15970000       0.46790000        1 
H       3.53090000      -0.48100000      -1.22490000        1 
H       4.59850000      -0.97720000       0.14190000        1 
H       3.70150000       0.56730000       0.23570000        1 
H       1.62220000      -1.58200000       2.53360000        1 
H       3.42040000      -1.70160000       2.44680000        1 
H       2.63800000      -0.09760000       2.42490000        1 
H      -3.53700000       1.24240000      -1.02620000        1 
H      -3.17560000       0.48860000       0.57120000        1 
H      -4.23350000      -0.35890000      -0.58900000        1 
H      -2.62050000      -2.44690000      -0.47020000        1 
H      -1.58260000      -1.56220000       0.68020000        1 
H      -0.87600000      -2.21140000      -0.84480000        1 
H      -2.73600000       0.12180000      -3.17320000        1 
H      -3.36830000      -1.47250000      -2.61440000        1 
H      -1.63880000      -1.29990000      -3.09630000        1 
H      -0.98230000       3.98480000       1.79410000        1 
