29
Properties=species:S:1:pos:R:3:Z:I:1 pbc="F F F"
O       0.56320000      -0.14090000       0.77150000        8 
O       3.15860000       0.91710000       1.58110000        8 
O       4.40360000       0.78180000       1.17670000        8 
C      -0.73600000      -0.25250000       0.20200000        6 
C      -1.20790000      -1.71930000       0.33030000        6 
C      -1.69670000       0.68360000       0.96620000        6 
C      -2.42880000      -2.03280000      -0.53630000        6 
C      -1.27390000       2.14810000       0.88470000        6 
C       1.62540000       1.40160000      -0.86620000        6 
C       1.79200000      -1.15390000      -1.15140000        6 
C       1.59410000       0.02590000      -0.19500000        6 
H      -0.76980000       0.03780000      -0.87300000        1 
H      -1.43640000      -1.96000000       1.39160000        1 
H      -0.39260000      -2.40170000       0.01560000        1 
H      -1.74350000       0.38660000       2.03680000        1 
H      -2.71970000       0.60520000       0.54230000        1 
H      -3.32340000      -1.48470000      -0.17700000        1 
H      -2.23160000      -1.76690000      -1.59660000        1 
H      -2.64870000      -3.11990000      -0.48270000        1 
H      -1.17850000       2.46680000      -0.17470000        1 
H      -0.30980000       2.30250000       1.41250000        1 
H      -2.04180000       2.78250000       1.37540000        1 
H       2.58320000       1.52400000      -1.41360000        1 
H       0.79180000       1.52070000      -1.58780000        1 
H       1.56840000       2.19730000      -0.09620000        1 
H       1.88620000      -2.09430000      -0.57040000        1 
H       2.73010000      -1.01230000      -1.72770000        1 
H       0.94750000      -1.23770000      -1.86640000        1 
H       2.49500000       0.59530000       0.62820000        1 
