20
Properties=species:S:1:pos:R:3:Z:I:1 pbc="F F F"
O       3.09920000       0.96450000       0.19810000        8 
C      -0.00160000      -0.62510000      -0.57140000        6 
C      -0.64830000       0.71470000      -0.89640000        6 
C      -0.24100000      -0.82030000       0.91980000        6 
C      -1.82930000       0.83760000       0.05910000        6 
C      -1.57110000      -0.13540000       1.21020000        6 
C       1.48410000      -0.66540000      -0.93870000        6 
H      -0.53490000      -1.42770000      -1.13010000        1 
H      -1.92280000       1.88050000       0.43340000        1 
H      -2.77000000       0.56050000      -0.46600000        1 
H      -2.38420000      -0.89320000       1.25390000        1 
H      -1.53030000       0.40150000       2.18310000        1 
H       0.06260000       1.55000000      -0.70590000        1 
H      -0.97970000       0.75450000      -1.95690000        1 
H      -0.27540000      -1.89990000       1.18350000        1 
H       0.56040000      -0.32620000       1.51370000        1 
H       2.08130000       0.17130000      -0.36540000        1 
H       1.91100000      -1.65610000      -0.67420000        1 
H       1.60660000      -0.50890000      -2.03140000        1 
H       3.88350000       1.12280000       0.78150000        1 
