40
Properties=species:S:1:pos:R:3:Z:I:1 pbc="F F F"
O      -1.45200000      -0.09200000       0.83060000        8 
O       2.05140000      -0.06830000      -0.17050000        8 
O       0.39870000      -0.69910000       2.88080000        8 
O      -3.91890000      -0.11920000       3.02330000        8 
C       2.90670000       0.83490000      -0.87040000        6 
C      -2.52280000      -0.48710000      -0.02540000        6 
C      -0.18400000      -0.65720000       0.52210000        6 
C       0.79490000       0.47830000       0.19390000        6 
C       0.29960000      -1.48740000       1.72410000        6 
C       3.04090000       2.21310000      -0.17570000        6 
C       2.44290000       1.00970000      -2.33360000        6 
C       4.29800000       0.17920000      -0.88860000        6 
C      -3.77390000       0.23750000       0.49880000        6 
C      -2.29450000      -0.03540000      -1.48770000        6 
C      -2.79480000      -2.00810000       0.05020000        6 
H      -0.19270000      -1.33830000      -0.35430000        1 
H       0.34660000       1.07920000      -0.62340000        1 
H       0.90770000       1.13030000       1.08750000        1 
H      -0.39580000      -2.34020000       1.89610000        1 
H       1.29690000      -1.92440000       1.50440000        1 
H       2.09830000       2.79610000      -0.24630000        1 
H       3.83840000       2.81880000      -0.65800000        1 
H       3.29900000       2.08000000       0.89680000        1 
H       2.24010000       0.01830000      -2.79250000        1 
H       1.52330000       1.62520000      -2.40550000        1 
H       3.22470000       1.52340000      -2.93410000        1 
H       4.66390000       0.02450000       0.14960000        1 
H       5.03520000       0.81050000      -1.43100000        1 
H       4.25100000      -0.81310000      -1.38730000        1 
H      -3.98550000      -0.07240000       1.61450000        1 
H      -3.62280000       1.33840000       0.47150000        1 
H      -4.67000000      -0.00980000      -0.11140000        1 
H      -3.21460000      -0.19130000      -2.09150000        1 
H      -2.03390000       1.04410000      -1.51940000        1 
H      -1.48290000      -0.60680000      -1.98160000        1 
H      -3.74590000      -2.26050000      -0.46670000        1 
H      -1.99530000      -2.60130000      -0.43770000        1 
H      -2.87530000      -2.33060000       1.11030000        1 
H      -0.51930000      -0.61410000       3.24890000        1 
H      -3.28360000      -0.48490000       3.68910000        1 
