28
Properties=species:S:1:pos:R:3:Z:I:1 pbc="F F F"
O      -1.01840000      -1.50170000       2.10200000        8 
C      -1.09660000      -0.52500000      -0.26050000        6 
C       0.22470000      -0.89310000      -0.97990000        6 
C       1.48580000      -0.69210000      -0.10940000        6 
C      -1.17090000       0.99140000       0.04360000        6 
C       2.31640000       0.51680000      -0.56530000        6 
C      -2.28790000      -0.98210000      -1.12040000        6 
C       3.52210000       0.73300000       0.34460000        6 
C      -2.41850000       1.38690000       0.83540000        6 
H      -1.13930000      -1.09080000       0.70620000        1 
H       1.69560000       1.43710000      -0.56140000        1 
H       2.67700000       0.34780000      -1.60340000        1 
H       1.21440000      -0.58560000       0.96380000        1 
H       2.12390000      -1.60010000      -0.18950000        1 
H       0.30280000      -0.32840000      -1.93590000        1 
H       0.18250000      -1.96980000      -1.25790000        1 
H      -1.13740000       1.57430000      -0.90280000        1 
H      -0.29530000       1.28740000       0.65730000        1 
H       4.10890000       1.60380000      -0.01640000        1 
H       4.17700000      -0.16430000       0.33780000        1 
H       3.18840000       0.93650000       1.38450000        1 
H      -3.24000000      -0.88000000      -0.56000000        1 
H      -2.18450000      -2.05520000      -1.38860000        1 
H      -2.34820000      -0.38500000      -2.05560000        1 
H      -2.53280000       0.74030000       1.73130000        1 
H      -3.32700000       1.31270000       0.20270000        1 
H      -2.32370000       2.44120000       1.17120000        1 
H      -0.69900000      -1.65610000       3.02660000        1 
