26
Properties=species:S:1:pos:R:3:Z:I:1 pbc="F F F"
O       2.03190000       1.94620000      -3.27850000        8 
C       1.49490000      -0.76880000      -0.98230000        6 
C      -2.04770000       0.23610000       1.65480000        6 
C      -0.65590000       0.85830000       1.81980000        6 
C       1.51030000      -0.39870000      -2.46890000        6 
C       1.25630000      -2.27390000      -0.81120000        6 
C      -3.09700000       1.02010000       2.43730000        6 
C       0.43630000       0.02550000      -0.25290000        6 
C       0.38800000       0.06030000       1.08820000        6 
H       2.49150000      -0.51300000      -0.55870000        1 
H      -2.33570000       0.22860000       0.58120000        1 
H      -2.03360000      -0.81340000       2.02220000        1 
H      -0.39140000       0.87910000       2.89940000        1 
H      -0.65400000       1.90500000       1.44400000        1 
H      -3.14550000       2.06860000       2.07360000        1 
H      -2.85190000       1.01820000       3.52090000        1 
H      -4.09300000       0.54940000       2.29810000        1 
H       1.71090000       0.75440000      -2.59380000        1 
H       2.32040000      -0.94950000      -2.99280000        1 
H       0.53850000      -0.64870000      -2.94730000        1 
H       0.25850000      -2.55940000      -1.20900000        1 
H       1.30780000      -2.55540000       0.26190000        1 
H       2.03700000      -2.84950000      -1.35290000        1 
H       1.13090000      -0.47790000       1.67060000        1 
H      -0.28970000       0.59840000      -0.82530000        1 
H       2.68230000       2.65980000      -3.49850000        1 
