28
Properties=species:S:1:pos:R:3:Z:I:1 pbc="F F F"
O      -4.35850000       1.42780000      -0.64960000        8 
C       1.79220000      -0.60780000      -0.67760000        6 
C       0.44490000      -0.23340000      -0.04710000        6 
C       3.35890000      -2.21340000       0.63850000        6 
C      -1.48460000       3.07310000      -0.66570000        6 
C       2.20050000      -2.01290000      -0.30190000        6 
C      -1.15720000       1.70880000      -0.13180000        6 
C       0.05140000       1.17860000      -0.40080000        6 
C      -2.21870000       0.97410000       0.58970000        6 
C       1.54810000      -3.06810000      -0.81510000        6 
C      -2.05130000       0.50250000       1.82270000        6 
H      -0.33960000      -0.93090000      -0.41340000        1 
H       0.53070000      -0.33050000       1.05510000        1 
H       1.73310000      -0.52350000      -1.78530000        1 
H       2.56600000       0.11060000      -0.32660000        1 
H       4.27480000      -1.76610000       0.19870000        1 
H       3.14020000      -1.71210000       1.60450000        1 
H       3.55360000      -3.28920000       0.83710000        1 
H      -1.40640000       3.07440000      -1.77370000        1 
H      -2.51630000       3.37610000      -0.38590000        1 
H      -0.77620000       3.82000000      -0.24870000        1 
H       0.76200000       1.77920000      -0.95970000        1 
H      -3.33510000       0.90870000       0.08210000        1 
H      -2.87460000       0.01530000       2.32740000        1 
H      -1.11690000       0.62900000       2.35300000        1 
H       1.83290000      -4.08390000      -0.55890000        1 
H       0.72130000      -2.92860000      -1.50510000        1 
H      -4.87490000       1.12230000       0.13820000        1 
