28
Properties=species:S:1:pos:R:3:Z:I:1 pbc="F F F"
O       4.90500000      -1.06670000      -0.83820000        8 
C       0.73490000      -1.32440000      -0.10150000        6 
C      -0.10140000      -0.79010000       1.06820000        6 
C       2.92370000       0.06000000       0.26250000        6 
C      -3.03270000      -0.99470000       0.48260000        6 
C       1.74220000      -0.30710000      -0.59400000        6 
C      -2.28410000       0.31010000       0.39200000        6 
C      -0.95770000       0.37720000       0.63920000        6 
C      -3.04710000       1.50600000      -0.05190000        6 
C       1.59650000       0.26780000      -1.79690000        6 
C      -2.71150000       2.76150000       0.25090000        6 
H      -0.70820000      -1.62300000       1.47760000        1 
H       0.56270000      -0.45850000       1.89440000        1 
H       0.05000000      -1.64080000      -0.91960000        1 
H       1.28160000      -2.23410000       0.22790000        1 
H       3.87380000      -0.15360000      -0.28910000        1 
H       2.88240000       1.14040000       0.51610000        1 
H       2.92960000      -0.52570000       1.20570000        1 
H      -3.02210000      -1.36670000       1.52860000        1 
H      -2.56930000      -1.74820000      -0.18900000        1 
H      -4.09490000      -0.87530000       0.18090000        1 
H      -0.42910000       1.30790000       0.47970000        1 
H      -3.96220000       1.35300000      -0.61100000        1 
H      -1.85170000       2.99750000       0.86260000        1 
H      -3.33120000       3.57960000      -0.09280000        1 
H       2.31840000       0.99600000      -2.15500000        1 
H       0.75310000       0.02540000      -2.43620000        1 
H       5.54930000      -1.57330000      -1.39390000        1 
