28
Properties=species:S:1:pos:R:3:Z:I:1 pbc="F F F"
O      -0.36210000      -2.52730000       1.99730000        8 
C       0.48700000       0.69960000       1.07050000        6 
C       0.64910000      -0.17150000      -0.17880000        6 
C       2.93720000       1.58060000       1.28720000        6 
C      -2.19370000      -2.67780000      -1.08140000        6 
C       1.47320000       1.84520000       1.05990000        6 
C      -1.34780000      -1.43650000      -1.10280000        6 
C      -0.37460000      -1.27660000      -0.18210000        6 
C      -1.62160000      -0.46540000      -2.18470000        6 
C       1.05470000       3.10290000       0.85470000        6 
C      -1.86980000       0.82120000      -1.94620000        6 
H       0.59630000       0.45880000      -1.08980000        1 
H       1.65480000      -0.64270000      -0.17460000        1 
H      -0.55670000       1.08150000       1.11830000        1 
H       0.65360000       0.08760000       1.98370000        1 
H       3.12300000       0.50200000       1.47390000        1 
H       3.29100000       2.15320000       2.17060000        1 
H       3.51860000       1.89080000       0.39330000        1 
H      -2.06570000      -3.23120000      -2.03550000        1 
H      -1.92660000      -3.35980000      -0.24600000        1 
H      -3.26170000      -2.39510000      -0.97080000        1 
H      -0.24670000      -2.11190000       0.68920000        1 
H      -1.75190000      -0.83850000      -3.19300000        1 
H      -1.84330000       1.22210000      -0.94190000        1 
H      -2.12430000       1.48310000      -2.76360000        1 
H       0.00560000       3.32490000       0.68430000        1 
H       1.76050000       3.92840000       0.84880000        1 
H       0.34220000      -3.04760000       2.45980000        1 
