26
Properties=species:S:1:pos:R:3:Z:I:1 pbc="F F F"
O       3.09850000       1.55120000      -0.40990000        8 
C      -2.11520000       0.52230000       0.19930000        6 
C      -1.31300000      -0.38840000       1.16380000        6 
C       0.20280000      -0.48340000       0.88990000        6 
C      -1.73540000       2.00410000       0.33600000        6 
C      -2.03100000       0.07000000      -1.26330000        6 
C       2.99070000      -1.00770000      -0.04620000        6 
C       0.54340000      -1.52630000      -0.14850000        6 
C       1.79950000      -1.76140000      -0.56230000        6 
H      -3.18280000       0.43710000       0.50210000        1 
H      -1.76030000      -1.40700000       1.16670000        1 
H      -1.45140000       0.00260000       2.19580000        1 
H       0.70710000      -0.76980000       1.83820000        1 
H       0.60850000       0.50180000       0.58510000        1 
H      -2.46890000       2.63190000      -0.21370000        1 
H      -0.72870000       2.20630000      -0.08450000        1 
H      -1.75220000       2.31210000       1.40300000        1 
H      -2.31870000      -0.99890000      -1.35220000        1 
H      -2.73310000       0.66640000      -1.88420000        1 
H      -1.00570000       0.21120000      -1.66550000        1 
H       2.88900000       0.08180000      -0.28140000        1 
H       3.08550000      -1.14680000       1.05120000        1 
H       3.91250000      -1.38970000      -0.53260000        1 
H       1.96500000      -2.53430000      -1.30740000        1 
H      -0.25100000      -2.12920000      -0.57860000        1 
H       3.04490000       2.34390000      -1.00090000        1 
