26
Properties=species:S:1:pos:R:3:Z:I:1 pbc="F F F"
O      -3.99760000       0.32030000       2.00000000        8 
C       2.49930000      -0.60800000       0.44800000        6 
C      -1.92940000       0.96840000      -0.55100000        6 
C      -1.32460000      -0.41760000      -0.31320000        6 
C       3.01390000      -1.61140000      -0.59060000        6 
C       2.98460000       0.81240000       0.13560000        6 
C      -3.44930000       0.93490000      -0.42580000        6 
C       0.99260000      -0.66150000       0.56760000        6 
C       0.17220000      -0.36340000      -0.45450000        6 
H       2.92520000      -0.89820000       1.43380000        1 
H      -1.66010000       1.32710000      -1.56880000        1 
H      -1.52270000       1.68590000       0.19490000        1 
H      -1.61750000      -0.78130000       0.69680000        1 
H      -1.72150000      -1.13350000      -1.06480000        1 
H      -3.76150000       0.58500000       0.65380000        1 
H      -3.88340000       0.24100000      -1.17690000        1 
H      -3.85950000       1.95150000      -0.60230000        1 
H       2.66810000      -1.34280000      -1.61150000        1 
H       2.65240000      -2.63310000      -0.34560000        1 
H       4.12470000      -1.62610000      -0.58630000        1 
H       2.60210000       1.52270000       0.89960000        1 
H       2.63790000       1.14180000      -0.86700000        1 
H       4.09480000       0.84690000       0.15470000        1 
H       0.58440000      -0.07280000      -1.41640000        1 
H       0.57140000      -0.95080000       1.52670000        1 
H      -3.79660000       0.76270000       2.86290000        1 
