26
Properties=species:S:1:pos:R:3:Z:I:1 pbc="F F F"
O      -4.42930000       0.89200000      -0.61410000        8 
C      -1.32590000      -0.48430000       0.36200000        6 
C       0.21810000      -0.43050000       0.33200000        6 
C       0.78710000      -0.44930000      -1.09850000        6 
C       2.31370000      -0.59900000      -1.10870000        6 
C      -1.95530000       0.79810000      -0.20230000        6 
C      -1.81600000      -0.71440000       1.79720000        6 
C       2.98970000       0.62340000      -0.54580000        6 
C       3.76780000       0.56450000       0.53870000        6 
H      -1.67090000      -1.34470000      -0.25330000        1 
H       0.35050000      -1.30770000      -1.65420000        1 
H       0.51140000       0.48280000      -1.63660000        1 
H       0.57100000       0.47970000       0.86510000        1 
H       0.61640000      -1.31540000       0.87650000        1 
H       2.65310000      -0.72730000      -2.15860000        1 
H       2.60400000      -1.51830000      -0.55300000        1 
H      -3.12610000       0.75940000      -0.08840000        1 
H      -1.57410000       1.69280000       0.33530000        1 
H      -1.73270000       0.90130000      -1.28410000        1 
H      -1.49790000       0.12040000       2.45840000        1 
H      -2.92440000      -0.78780000       1.81920000        1 
H      -1.40380000      -1.66560000       2.19680000        1 
H       2.83880000       1.58030000      -1.03700000        1 
H       3.93900000      -0.37350000       1.05790000        1 
H       4.23850000       1.46590000       0.91720000        1 
H      -4.94270000       1.35700000      -1.32180000        1 
