28
Properties=species:S:1:pos:R:3:Z:I:1 pbc="F F F"
O       0.03070000       3.00330000      -0.94810000        8 
C       1.02660000      -0.10770000       0.36530000        6 
C      -1.46410000       0.01580000      -0.74350000        6 
C       0.01510000       0.50070000      -0.66990000        6 
C       0.99090000      -1.64720000       0.40040000        6 
C       0.79160000       0.44810000       1.78890000        6 
C       2.44750000       0.32320000      -0.06880000        6 
C      -2.22150000       0.04330000       0.58680000        6 
C      -1.64490000      -1.32930000      -1.46560000        6 
H      -1.97430000       0.76360000      -1.39230000        1 
H      -0.00980000       1.63720000      -0.50730000        1 
H       0.43760000       0.37680000      -1.69210000        1 
H      -3.31340000      -0.03260000       0.39540000        1 
H      -1.93750000      -0.81330000       1.23020000        1 
H      -2.03650000       1.00050000       1.11860000        1 
H      -2.70560000      -1.44380000      -1.77610000        1 
H      -1.01740000      -1.37280000      -2.38070000        1 
H      -1.39970000      -2.19020000      -0.81510000        1 
H       1.07010000      -2.06470000      -0.62610000        1 
H       0.06390000      -2.01640000       0.88210000        1 
H       1.83940000      -2.04400000       0.99910000        1 
H       1.63420000       0.17170000       2.45940000        1 
H       0.71600000       1.55650000       1.77420000        1 
H      -0.12230000       0.03620000       2.25450000        1 
H       2.52490000       1.43150000      -0.11260000        1 
H       2.69430000      -0.08330000      -1.07370000        1 
H       3.21550000      -0.04770000       0.64450000        1 
H       0.34860000       3.88460000      -0.62740000        1 
