28
Properties=species:S:1:pos:R:3:Z:I:1 pbc="F F F"
O      -1.83960000       1.69870000       1.02870000        8 
C       1.20790000       0.40840000      -0.16850000        6 
C      -1.23870000      -0.61800000       0.24590000        6 
C       0.27700000      -0.59420000       0.59730000        6 
C       2.48720000       0.61230000       0.67620000        6 
C       1.64500000      -0.15870000      -1.53830000        6 
C       0.53950000       1.78510000      -0.36430000        6 
C      -1.97970000      -1.51620000       1.24920000        6 
C      -1.52330000      -1.10780000      -1.18190000        6 
H      -1.66850000       0.41060000       0.36280000        1 
H       0.33920000      -0.34740000       1.68130000        1 
H       0.68830000      -1.62400000       0.50310000        1 
H      -3.07300000      -1.49870000       1.05150000        1 
H      -1.82090000      -1.15240000       2.28680000        1 
H      -1.61840000      -2.56480000       1.17690000        1 
H      -2.58980000      -1.39860000      -1.29410000        1 
H      -0.89230000      -1.98660000      -1.43430000        1 
H      -1.35170000      -0.29290000      -1.91170000        1 
H       2.24310000       1.06430000       1.66210000        1 
H       3.20300000       1.28950000       0.16120000        1 
H       2.99670000      -0.35960000       0.85490000        1 
H       2.06520000      -1.18120000      -1.42570000        1 
H       2.42820000       0.48510000      -1.99430000        1 
H       0.81190000      -0.19960000      -2.26200000        1 
H      -0.31560000       1.72160000      -1.06830000        1 
H       1.26280000       2.51470000      -0.78880000        1 
H       0.17380000       2.18190000       0.60730000        1 
H      -2.45720000       2.42840000       1.28700000        1 
