20
Properties=species:S:1:pos:R:3:Z:I:1 pbc="F F F"
O       3.80080000       0.83040000       1.45250000        8 
C       2.41870000      -0.52150000      -0.23760000        6 
C      -3.33950000       0.27140000      -0.13500000        6 
C       0.93360000      -0.31190000      -0.22560000        6 
C      -1.85320000       0.07190000      -0.17560000        6 
C       0.19530000      -0.63440000       0.92230000        6 
C      -1.18950000      -0.44370000       0.94710000        6 
C      -1.11490000       0.39520000      -1.32510000        6 
C       0.27020000       0.20440000      -1.34990000        6 
H       2.90580000       0.10810000       0.60140000        1 
H       2.86550000      -0.21980000      -1.20890000        1 
H       2.64540000      -1.59450000      -0.06410000        1 
H      -3.84120000      -0.70100000       0.05360000        1 
H      -3.59880000       0.97780000       0.68140000        1 
H      -3.72190000       0.68470000      -1.09260000        1 
H       0.69290000      -1.03350000       1.79770000        1 
H      -1.74530000      -0.69780000       1.84140000        1 
H      -1.60880000       0.79450000      -2.20230000        1 
H       0.82260000       0.45970000      -2.24570000        1 
H       4.46220000       1.36000000       1.96500000        1 
