26
Properties=species:S:1:pos:R:3:Z:I:1 pbc="F F F"
O       3.13250000       0.91220000       1.48080000        8 
C      -1.61870000       0.51140000      -0.47080000        6 
C      -2.16800000       1.86370000       0.00910000        6 
C      -0.50420000      -0.02890000       0.43420000        6 
C      -2.97980000       1.74750000       1.29880000        6 
C       2.32850000      -0.33020000      -0.57010000        6 
C       1.76850000      -2.78270000      -1.15740000        6 
C       1.32600000      -1.45600000      -0.59570000        6 
C       0.05960000      -1.30500000      -0.14490000        6 
H      -2.83070000       2.27410000      -0.78340000        1 
H      -1.33500000       2.58510000       0.15650000        1 
H      -2.44690000      -0.22840000      -0.53730000        1 
H      -1.20870000       0.65170000      -1.49550000        1 
H      -0.91450000      -0.26720000       1.43750000        1 
H       0.27030000       0.75310000       0.56970000        1 
H      -2.32660000       1.46580000       2.15050000        1 
H      -3.78610000       0.99220000       1.18420000        1 
H      -3.44540000       2.72840000       1.53090000        1 
H       2.51640000      -0.00820000       0.48520000        1 
H       3.29720000      -0.65270000      -1.00760000        1 
H       1.95120000       0.52840000      -1.16510000        1 
H       2.08900000      -2.64950000      -2.21200000        1 
H       0.95860000      -3.54300000      -1.13230000        1 
H       2.62570000      -3.16720000      -0.56590000        1 
H      -0.62420000      -2.14830000      -0.19960000        1 
H       3.86510000       1.55350000       1.30000000        1 
