20
Properties=species:S:1:pos:R:3:Z:I:1 pbc="F F F"
O      -2.19880000       0.30610000      -0.96870000        8 
O       2.63220000       0.82520000       1.30560000        8 
C      -1.03070000       0.00120000      -0.24290000        6 
C       0.17420000      -0.02490000      -1.22760000        6 
C      -1.24530000      -1.37850000       0.40310000        6 
C      -0.83800000       1.05910000       0.86400000        6 
C       1.52430000      -0.38410000      -0.59830000        6 
H      -0.03710000      -0.75450000      -2.04000000        1 
H       0.27610000       0.97240000      -1.70900000        1 
H       1.83070000       0.39990000       0.22450000        1 
H       2.30650000      -0.37010000      -1.38630000        1 
H       1.50450000      -1.40300000      -0.16110000        1 
H      -2.19150000      -1.38300000       0.98620000        1 
H      -0.41870000      -1.63630000       1.09790000        1 
H      -1.31790000      -2.16550000      -0.37790000        1 
H      -1.77380000       1.16750000       1.45340000        1 
H      -0.59090000       2.04740000       0.42060000        1 
H      -0.02620000       0.76990000       1.56390000        1 
H      -2.08900000       1.21090000      -1.36450000        1 
H       3.50940000       0.74040000       1.75730000        1 
