20
Properties=species:S:1:pos:R:3:Z:I:1 pbc="F F F"
O       1.65610000      -0.12340000      -0.59380000        8 
O       2.68210000       1.95300000      -0.06720000        8 
C       0.36980000      -0.40340000      -0.09680000        6 
C      -0.62350000       0.64390000      -0.67630000        6 
C       0.00450000      -1.82560000      -0.55540000        6 
C       0.40990000      -0.35660000       1.44430000        6 
C      -2.08820000       0.44650000      -0.27110000        6 
H      -0.31310000       1.66210000      -0.35450000        1 
H      -0.56370000       0.62520000      -1.78670000        1 
H      -2.48010000      -0.52030000      -0.64760000        1 
H      -2.20900000       0.49900000       0.83000000        1 
H      -2.70110000       1.25690000      -0.71900000        1 
H       0.80230000      -2.53920000      -0.25630000        1 
H      -0.09480000      -1.86290000      -1.66150000        1 
H      -0.94650000      -2.16940000      -0.09710000        1 
H       1.23510000      -0.99720000       1.82310000        1 
H      -0.53940000      -0.72680000       1.88530000        1 
H       0.58550000       0.68130000       1.79970000        1 
H       1.94690000       0.88030000      -0.23720000        1 
H       2.86730000       2.87660000       0.23820000        1 
