28
Properties=species:S:1:pos:R:3:Z:I:1 pbc="F F F"
O       1.64170000       1.69390000       1.43360000        8 
C       0.10400000      -0.29220000      -1.07440000        6 
C      -1.01360000      -0.08390000       1.29640000        6 
C      -0.73720000      -0.95840000       0.04690000        6 
C       1.51650000       0.10250000      -0.57510000        6 
C      -1.72390000       1.23160000       0.94300000        6 
C      -1.85840000      -0.87500000       2.30440000        6 
C       0.18470000      -1.25310000      -2.27420000        6 
C       2.36510000       0.79180000      -1.64510000        6 
H      -0.05560000       0.15550000       1.80360000        1 
H      -0.42240000       0.62090000      -1.42560000        1 
H       1.42360000       0.84640000       0.29470000        1 
H       2.05610000      -0.79570000      -0.20300000        1 
H      -1.71750000      -1.26680000      -0.38120000        1 
H      -0.21870000      -1.88800000       0.37210000        1 
H       1.79900000       1.62450000      -2.11410000        1 
H       3.28170000       1.20830000      -1.17660000        1 
H       2.68120000       0.06800000      -2.42460000        1 
H      -2.01780000       1.77250000       1.86790000        1 
H      -2.63580000       1.03530000       0.33930000        1 
H      -1.04540000       1.90130000       0.37560000        1 
H      -2.85040000      -1.12920000       1.87230000        1 
H      -1.33890000      -1.81540000       2.58740000        1 
H      -2.01330000      -0.27900000       3.22930000        1 
H      -0.83120000      -1.59170000      -2.57020000        1 
H       0.62460000      -0.74500000      -3.15710000        1 
H       0.79800000      -2.14480000      -2.02230000        1 
H       2.00360000       2.06570000       2.27700000        1 
