40
Properties=species:S:1:pos:R:3:Z:I:1 pbc="F F F"
O      -1.93690000       0.35420000       0.99870000        8 
O       1.63710000      -0.49980000       0.63490000        8 
O      -2.20890000      -2.37070000       1.12140000        8 
O       0.56520000      -0.50570000       3.13610000        8 
C       2.75130000      -0.31460000      -0.23810000        6 
C      -2.51120000       0.88430000      -0.20250000        6 
C      -0.74840000      -0.43950000       0.95950000        6 
C       0.45820000       0.17870000       0.23360000        6 
C      -0.99580000      -1.91560000       0.58520000        6 
C       3.00810000       1.17100000      -0.59630000        6 
C       3.98260000      -0.83570000       0.52220000        6 
C       2.58970000      -1.16060000      -1.52060000        6 
C      -2.60350000      -0.10580000      -1.38640000        6 
C      -3.95630000       1.25810000       0.18030000        6 
C      -1.80350000       2.18740000      -0.63750000        6 
H      -0.42060000      -0.48400000       2.04890000        1 
H       0.30260000       0.11330000      -0.85700000        1 
H       0.53890000       1.24240000       0.54380000        1 
H      -1.00500000      -2.06380000      -0.51140000        1 
H      -0.15770000      -2.54310000       0.96660000        1 
H       2.21130000       1.57330000      -1.25690000        1 
H       3.97180000       1.28170000      -1.13890000        1 
H       3.05060000       1.78770000       0.32700000        1 
H       4.90500000      -0.74460000      -0.09190000        1 
H       3.84520000      -1.90490000       0.79350000        1 
H       4.12710000      -0.25920000       1.46150000        1 
H       3.54400000      -1.19650000      -2.08960000        1 
H       1.82270000      -0.73870000      -2.20140000        1 
H       2.29480000      -2.19960000      -1.25950000        1 
H      -1.61520000      -0.32880000      -1.82800000        1 
H      -3.21070000       0.33410000      -2.20720000        1 
H      -3.10030000      -1.04810000      -1.07410000        1 
H      -4.50730000       1.69940000      -0.67900000        1 
H      -3.95780000       1.99610000       1.01180000        1 
H      -4.50890000       0.35650000       0.52350000        1 
H      -2.45380000       2.78560000      -1.31230000        1 
H      -1.55940000       2.80840000       0.25090000        1 
H      -0.87530000       1.99300000      -1.20740000        1 
H      -2.06690000      -2.47200000       2.09880000        1 
H       0.59730000       0.12620000       3.89780000        1 
