26
Properties=species:S:1:pos:R:3:Z:I:1 pbc="F F F"
O       2.51260000       1.43440000      -2.01650000        8 
C      -1.75520000       0.97830000       0.33180000        6 
C      -0.57350000       0.35690000      -0.45030000        6 
C      -0.00860000      -0.93850000       0.16680000        6 
C       1.09400000      -1.56530000      -0.69810000        6 
C      -2.99590000       0.07460000       0.34090000        6 
C      -1.36440000       1.38670000       1.75860000        6 
C       2.36020000      -0.74920000      -0.66730000        6 
C       3.48440000      -1.20780000      -0.11020000        6 
H      -2.03740000       1.91010000      -0.20750000        1 
H       0.39630000      -0.74050000       1.18230000        1 
H      -0.82270000      -1.68670000       0.26290000        1 
H       0.23510000       1.11590000      -0.51360000        1 
H      -0.90700000       0.14980000      -1.49090000        1 
H       1.28790000      -2.59490000      -0.32360000        1 
H       0.74930000      -1.66050000      -1.75000000        1 
H      -3.24240000      -0.25400000      -0.69110000        1 
H      -2.83850000      -0.81970000       0.97940000        1 
H      -3.86690000       0.63580000       0.74160000        1 
H      -1.18730000       0.49530000       2.39640000        1 
H      -0.44570000       2.01090000       1.74320000        1 
H      -2.18110000       1.98460000       2.21660000        1 
H       2.36900000       0.35230000      -1.17720000        1 
H       4.37800000      -0.59280000      -0.11440000        1 
H       3.52470000      -2.18860000       0.35360000        1 
H       1.83510000       2.11290000      -2.26380000        1 
