26
Properties=species:S:1:pos:R:3:Z:I:1 pbc="F F F"
O       3.50710000       0.96100000       1.77230000        8 
C      -1.89060000      -0.44160000      -0.13580000        6 
C      -1.18160000       0.89610000       0.19170000        6 
C       0.29390000       0.74180000       0.59880000        6 
C      -2.09640000      -1.30430000       1.11890000        6 
C      -3.24500000      -0.16500000      -0.80160000        6 
C       3.36350000      -0.40100000      -1.46670000        6 
C       1.15960000       0.27580000      -0.54170000        6 
C       2.46800000       0.05750000      -0.35500000        6 
H      -1.27800000      -1.02160000      -0.85940000        1 
H      -1.72580000       1.40800000       1.01570000        1 
H      -1.22810000       1.57170000      -0.69150000        1 
H       0.66720000       1.73270000       0.93750000        1 
H       0.39020000       0.04440000       1.45630000        1 
H      -1.12330000      -1.64420000       1.52770000        1 
H      -2.64250000      -0.73620000       1.90230000        1 
H      -2.68180000      -2.21460000       0.86750000        1 
H      -3.90610000       0.41220000      -0.11970000        1 
H      -3.74740000      -1.12010000      -1.06570000        1 
H      -3.10160000       0.41460000      -1.73850000        1 
H       2.80940000      -0.52690000      -2.42160000        1 
H       3.82120000      -1.37270000      -1.18850000        1 
H       4.16950000       0.34660000      -1.61710000        1 
H       2.95770000       0.23080000       0.74210000        1 
H       0.72290000       0.12660000      -1.52590000        1 
H       3.51810000       1.72840000       2.39810000        1 
