26
Properties=species:S:1:pos:R:3:Z:I:1 pbc="F F F"
O       5.30650000      -0.33200000      -0.96460000        8 
C      -2.33590000      -0.47170000       0.72780000        6 
C      -0.84650000      -0.35300000       0.34030000        6 
C       1.94390000       0.43260000      -0.38170000        6 
C      -3.24380000       0.18210000      -0.32540000        6 
C      -2.72170000      -1.94560000       0.90540000        6 
C       3.27970000       1.11460000      -0.65700000        6 
C       0.91630000       1.41920000       0.11450000        6 
C      -0.34020000       1.06780000       0.43530000        6 
H      -2.49940000       0.03950000       1.70290000        1 
H       1.58400000      -0.03900000      -1.32110000        1 
H       2.09850000      -0.35980000       0.38170000        1 
H      -0.23820000      -0.98030000       1.02800000        1 
H      -0.70160000      -0.73360000      -0.69450000        1 
H       4.05560000       0.31730000      -1.04120000        1 
H       3.15940000       1.89800000      -1.43570000        1 
H       3.67540000       1.57700000       0.27260000        1 
H      -3.01310000       1.26290000      -0.42730000        1 
H      -4.30860000       0.09040000      -0.02220000        1 
H      -3.11130000      -0.30610000      -1.31490000        1 
H      -3.78870000      -2.03080000       1.20310000        1 
H      -2.56650000      -2.50830000      -0.04040000        1 
H      -2.10560000      -2.41040000       1.70450000        1 
H       1.19520000       2.46460000       0.22100000        1 
H      -1.00870000       1.84730000       0.79030000        1 
H       5.61510000      -1.24260000      -1.20140000        1 
