5
Properties=species:S:1:pos:R:3:Z:I:1 pbc="F F F"
O       1.88820000       0.10150000      -0.28280000        8 
C      -0.50440000      -0.04350000       0.19910000        6 
H      -1.20740000      -0.84840000      -0.09880000        1 
H      -0.98160000       0.94430000       0.03360000        1 
H       0.80520000      -0.15400000       0.14900000        1 
