29
Properties=species:S:1:pos:R:3:Z:I:1 pbc="F F F"
O       3.61010000       0.68600000       2.39350000        8 
C      -0.25140000      -0.41830000      -0.21000000        6 
C       1.08420000       0.35340000      -0.12800000        6 
C       2.20340000      -0.41640000       0.60540000        6 
C      -0.13890000      -1.68180000      -1.07070000        6 
C       3.21750000      -1.03080000      -0.35920000        6 
C      -2.76730000       0.46180000       1.23220000        6 
C      -3.38650000       1.79850000      -0.91610000        6 
C      -2.43690000       0.89070000      -0.17710000        6 
C      -1.30980000       0.48960000      -0.80730000        6 
H      -0.52850000      -0.73760000       0.81580000        1 
H       2.77010000       0.31310000       1.28760000        1 
H       1.78360000      -1.21110000       1.25940000        1 
H       0.89790000       1.29310000       0.43860000        1 
H       1.41410000       0.66070000      -1.14590000        1 
H       3.71910000      -0.23250000      -0.94660000        1 
H       3.99020000      -1.58130000       0.21750000        1 
H       2.72720000      -1.73910000      -1.05690000        1 
H       0.51500000      -2.43030000      -0.57730000        1 
H       0.27090000      -1.44070000      -2.07530000        1 
H      -1.14000000      -2.14800000      -1.19580000        1 
H      -1.97160000       0.80280000       1.92780000        1 
H      -2.85880000      -0.64390000       1.27940000        1 
H      -3.72840000       0.89660000       1.57680000        1 
H      -3.74290000       1.29600000      -1.84030000        1 
H      -4.27190000       2.05910000      -0.29970000        1 
H      -2.86660000       2.74020000      -1.19250000        1 
H      -1.13240000       0.83980000      -1.82230000        1 
H       4.32900000       0.13010000       2.78700000        1 
