26
Properties=species:S:1:pos:R:3:Z:I:1 pbc="F F F"
O       3.78640000       1.87740000      -1.10020000        8 
C      -2.15520000       0.00520000       0.83760000        6 
C      -1.35450000      -0.51150000      -0.37430000        6 
C       2.52160000      -0.23780000      -0.28450000        6 
C      -1.71880000       1.42350000       1.23450000        6 
C      -3.65710000      -0.01440000       0.52790000        6 
C       3.02230000      -1.61470000      -0.71270000        6 
C       1.07570000      -0.04080000      -0.64780000        6 
C       0.09700000      -0.71720000      -0.02730000        6 
H      -1.97900000      -0.67220000       1.70310000        1 
H       3.13030000       0.53720000      -0.79780000        1 
H       2.65600000      -0.11040000       0.81150000        1 
H      -1.76190000      -1.49400000      -0.69660000        1 
H      -1.46970000       0.19190000      -1.22920000        1 
H       2.88810000      -1.74960000      -1.80740000        1 
H       2.47250000      -2.41540000      -0.17420000        1 
H       4.10250000      -1.70720000      -0.47310000        1 
H      -1.86200000       2.12920000       0.38800000        1 
H      -0.64900000       1.43230000       1.53180000        1 
H      -2.31450000       1.77930000       2.10210000        1 
H      -3.88860000       0.64770000      -0.33420000        1 
H      -3.98550000      -1.04760000       0.28510000        1 
H      -4.23610000       0.33060000       1.41110000        1 
H       0.83070000       0.69130000      -1.41250000        1 
H       0.34450000      -1.43210000       0.75280000        1 
H       4.10400000       2.71930000      -1.51360000        1 
