33
Properties=species:S:1:pos:R:3:Z:I:1 pbc="F F F"
O       1.83680000       0.11030000       0.80300000        8 
O       4.52030000      -1.38160000       1.40630000        8 
C       0.87080000      -0.57310000       0.03460000        6 
C       3.02810000       0.17910000       0.04800000        6 
C      -0.49330000       0.11970000       0.19360000        6 
C       1.34420000      -0.61930000      -1.41170000        6 
C       2.83220000      -0.55860000      -1.27180000        6 
C      -2.98830000       0.03260000      -0.36680000        6 
C      -1.63180000      -0.68420000      -0.45800000        6 
C      -3.56490000       0.03060000       1.05660000        6 
C       3.39650000       1.64710000      -0.17380000        6 
C      -4.96920000       0.62730000       1.08080000        6 
H       0.79620000      -1.61300000       0.42630000        1 
H       3.86730000      -0.31580000       0.63710000        1 
H      -2.91920000       0.63050000       1.73170000        1 
H      -3.61160000      -1.01060000       1.44360000        1 
H      -3.69910000      -0.49390000      -1.04120000        1 
H      -2.88800000       1.07760000      -0.73400000        1 
H      -1.70390000      -1.68940000       0.01230000        1 
H      -1.40170000      -0.83340000      -1.53480000        1 
H      -0.69640000       0.22550000       1.28010000        1 
H      -0.44800000       1.14110000      -0.24440000        1 
H       0.99050000       0.26870000      -1.98210000        1 
H       1.01930000      -1.55120000      -1.92410000        1 
H       3.30590000      -0.05020000      -2.14070000        1 
H       3.24120000      -1.59010000      -1.18790000        1 
H      -4.94900000       1.67560000       0.71360000        1 
H      -5.35730000       0.62280000       2.12120000        1 
H      -5.65480000       0.02840000       0.44430000        1 
H       3.51860000       2.15510000       0.80620000        1 
H       2.59800000       2.16510000      -0.74740000        1 
H       4.35460000       1.72270000      -0.73090000        1 
H       5.45580000      -1.49530000       1.71040000        1 
