30
Properties=species:S:1:pos:R:3:Z:I:1 pbc="F F F"
O       0.65050000       1.86410000      -0.21460000        8 
O       2.67680000       1.60150000      -1.59990000        8 
C       1.90710000      -0.72870000      -1.02100000        6 
C      -2.18560000       0.37090000       0.90560000        6 
C       0.40780000      -0.37680000      -0.92610000        6 
C      -0.69690000       0.59120000       1.24940000        6 
C       2.13810000      -1.76310000      -2.12920000        6 
C       2.44450000      -1.26150000       0.31570000        6 
C      -2.79810000       1.61200000       0.23980000        6 
C      -2.97190000       0.01310000       2.17250000        6 
C       0.15420000       0.77170000       0.01820000        6 
H       2.48340000       0.19370000      -1.29200000        1 
H      -2.27850000      -0.48450000       0.20110000        1 
H       0.02700000      -0.08420000      -1.92880000        1 
H      -0.16110000      -1.27570000      -0.60240000        1 
H      -0.30560000      -0.28240000       1.81500000        1 
H      -0.59690000       1.48220000       1.90880000        1 
H       1.79070000      -1.36310000      -3.10570000        1 
H       3.22100000      -1.99440000      -2.21930000        1 
H       1.58710000      -2.70300000      -1.90980000        1 
H       1.88220000      -2.16640000       0.63190000        1 
H       3.51990000      -1.52310000       0.21980000        1 
H       2.35370000      -0.48780000       1.10690000        1 
H      -2.28400000       1.83140000      -0.71970000        1 
H      -3.87200000       1.43640000       0.01580000        1 
H      -2.71130000       2.49760000       0.90540000        1 
H      -2.91720000       0.83850000       2.91470000        1 
H      -2.55920000      -0.91050000       2.63180000        1 
H      -4.03800000      -0.17510000       1.92290000        1 
H       3.13190000       2.47600000      -1.50690000        1 
