26
Properties=species:S:1:pos:R:3:Z:I:1 pbc="F F F"
O      -1.53440000       2.71740000      -0.58990000        8 
C       1.49490000       0.70130000      -0.51320000        6 
C       2.90020000       0.09480000      -0.64780000        6 
C       0.43650000      -0.34190000      -0.12960000        6 
C       3.49900000      -0.31500000       0.69750000        6 
C      -1.99360000      -1.90450000       0.53090000        6 
C      -3.40200000       0.23730000       0.17570000        6 
C      -2.05600000      -0.43830000       0.18270000        6 
C      -0.94430000       0.26700000      -0.11760000        6 
H       3.56760000       0.85540000      -1.10800000        1 
H       2.87460000      -0.78440000      -1.32770000        1 
H       1.50890000       1.52110000       0.23860000        1 
H       1.21940000       1.14690000      -1.49460000        1 
H       0.46070000      -1.17580000      -0.86400000        1 
H       0.65790000      -0.74150000       0.88220000        1 
H       3.48310000       0.53950000       1.40700000        1 
H       4.55310000      -0.63160000       0.55040000        1 
H       2.94050000      -1.16900000       1.13320000        1 
H      -3.00780000      -2.30320000       0.74590000        1 
H      -1.56930000      -2.48010000      -0.31830000        1 
H      -1.36480000      -2.05560000       1.43320000        1 
H      -4.06350000      -0.26450000      -0.56120000        1 
H      -3.33280000       1.31310000      -0.09320000        1 
H      -3.86020000       0.15860000       1.18380000        1 
H      -1.05090000       1.44520000      -0.38960000        1 
H      -1.41660000       3.60790000      -1.00650000        1 
