28
Properties=species:S:1:pos:R:3:Z:I:1 pbc="F F F"
O       4.67580000       0.25510000       0.06380000        8 
C      -1.39480000       0.13630000      -0.33520000        6 
C      -1.23860000      -1.15800000       0.51000000        6 
C      -0.02280000      -0.24040000      -0.95430000        6 
C      -0.30850000      -1.71040000      -0.58940000        6 
C      -0.31770000      -0.89180000       1.75100000        6 
C      -2.55170000       0.02980000      -1.36080000        6 
C      -1.52290000       1.49780000       0.40430000        6 
C       2.30490000       0.94190000      -0.48960000        6 
C       1.10080000       0.19430000      -0.00230000        6 
C       0.95860000      -0.14640000       1.31190000        6 
H      -2.16140000      -1.74670000       0.70300000        1 
H       0.11900000      -0.02550000      -2.03560000        1 
H       0.56530000      -2.30700000      -0.23720000        1 
H      -0.85720000      -2.25560000      -1.38760000        1 
H      -0.86400000      -0.29360000       2.51010000        1 
H      -0.03260000      -1.85990000       2.21490000        1 
H      -2.54360000      -0.91970000      -1.93280000        1 
H      -2.48600000       0.86270000      -2.09300000        1 
H      -3.52870000       0.09650000      -0.83640000        1 
H      -2.49220000       1.53480000       0.94510000        1 
H      -1.50500000       2.32500000      -0.33670000        1 
H      -0.73040000       1.71600000       1.14210000        1 
H       3.22960000       0.34810000      -0.27760000        1 
H       2.23870000       1.12100000      -1.58300000        1 
H       2.37120000       1.92180000       0.02810000        1 
H       1.71470000       0.11850000       2.04450000        1 
H       5.27980000       0.45510000       0.82260000        1 
