28
Properties=species:S:1:pos:R:3:Z:I:1 pbc="F F F"
O       1.21660000       2.92300000       0.56420000        8 
C      -1.03790000       0.28460000       0.05030000        6 
C      -0.87510000      -0.36060000      -1.35370000        6 
C       0.48910000       0.54870000      -0.02150000        6 
C       0.38230000       0.50900000      -1.55840000        6 
C      -0.35500000      -1.83400000      -1.22030000        6 
C      -1.58250000      -0.59100000       1.21390000        6 
C      -1.86380000       1.59480000       0.00070000        6 
C       2.38080000      -0.69270000       1.33610000        6 
C       1.24490000      -0.73110000       0.35820000        6 
C       0.84050000      -1.88680000      -0.24770000        6 
H      -1.69960000      -0.19680000      -2.08080000        1 
H       0.86410000       1.50970000       0.42410000        1 
H       0.15490000       1.50230000      -2.00200000        1 
H       1.23030000       0.02440000      -2.09660000        1 
H      -1.16960000      -2.49450000      -0.85600000        1 
H      -0.03080000      -2.20380000      -2.21610000        1 
H      -2.64770000      -0.83990000       1.02180000        1 
H      -1.52350000      -0.02100000       2.16530000        1 
H      -1.05090000      -1.54450000       1.38210000        1 
H      -1.54720000       2.28140000      -0.81000000        1 
H      -2.93730000       1.35890000      -0.16050000        1 
H      -1.76270000       2.14240000       0.96200000        1 
H       2.01380000      -0.30750000       2.31010000        1 
H       2.81700000      -1.70220000       1.49310000        1 
H       3.17350000      -0.01660000       0.95380000        1 
H       1.32880000      -2.83370000      -0.03970000        1 
H       1.94710000       3.57750000       0.42770000        1 
