40
Properties=species:S:1:pos:R:3:Z:I:1 pbc="F F F"
O       1.91960000      -0.90120000       0.05250000        8 
O      -1.39650000       0.58940000      -0.17940000        8 
O       1.24820000       0.04010000      -2.48500000        8 
O      -2.81230000       3.65940000      -0.89450000        8 
C      -2.67680000       0.17780000      -0.65550000        6 
C       2.74080000      -0.83540000       1.21760000        6 
C       0.97450000       0.15210000      -0.08820000        6 
C      -0.43620000      -0.45130000      -0.10940000        6 
C       1.27070000       0.91350000      -1.38890000        6 
C      -3.63490000       1.34570000      -0.36930000        6 
C      -2.64830000      -0.04990000      -2.18320000        6 
C      -3.22400000      -1.07520000       0.07290000        6 
C       3.66990000      -2.05990000       1.15230000        6 
C       3.63050000       0.43040000       1.22960000        6 
C       1.91110000      -0.94290000       2.51920000        6 
H       0.99790000       0.89710000       0.73420000        1 
H      -0.58430000      -1.01710000       0.83560000        1 
H      -0.50250000      -1.16690000      -0.95540000        1 
H       0.52190000       1.72430000      -1.53460000        1 
H       2.27560000       1.38450000      -1.31150000        1 
H      -3.26060000       2.32110000      -0.91140000        1 
H      -4.66470000       1.11980000      -0.72250000        1 
H      -3.67460000       1.55280000       0.72210000        1 
H      -2.10590000      -0.97840000      -2.45370000        1 
H      -3.68030000      -0.14830000      -2.58440000        1 
H      -2.15270000       0.80640000      -2.68900000        1 
H      -4.28320000      -1.26030000      -0.20890000        1 
H      -3.17130000      -0.93380000       1.17370000        1 
H      -2.64870000      -1.98580000      -0.19640000        1 
H       4.35400000      -2.09530000       2.02810000        1 
H       4.28500000      -2.02890000       0.22690000        1 
H       3.07260000      -2.99730000       1.13500000        1 
H       3.04380000       1.35320000       1.41270000        1 
H       4.39090000       0.36480000       2.03770000        1 
H       4.15930000       0.53610000       0.25830000        1 
H       1.22540000      -1.81530000       2.46570000        1 
H       1.30710000      -0.03250000       2.70770000        1 
H       2.57950000      -1.07580000       3.39730000        1 
H       1.43160000       0.59770000      -3.28510000        1 
H      -3.45200000       3.88540000      -0.17310000        1 
