26
Properties=species:S:1:pos:R:3:Z:I:1 pbc="F F F"
O      -0.49740000       3.05990000       2.00650000        8 
C      -1.31200000       0.00730000       0.82760000        6 
C       2.31490000      -0.88430000      -0.91730000        6 
C       0.93470000      -0.32470000      -1.27220000        6 
C      -1.89630000       0.31150000       2.21120000        6 
C      -2.43720000      -0.07480000      -0.21130000        6 
C       2.62840000      -2.13840000      -1.72840000        6 
C      -0.31220000       1.07660000       0.44160000        6 
C       0.66250000       0.92850000      -0.47580000        6 
H      -0.80210000      -0.97730000       0.90380000        1 
H       3.09570000      -0.11940000      -1.12280000        1 
H       2.34640000      -1.13810000       0.16500000        1 
H       0.17160000      -1.11020000      -1.10640000        1 
H       0.90790000      -0.05990000      -2.35110000        1 
H       2.62290000      -1.90650000      -2.81490000        1 
H       3.63430000      -2.51830000      -1.45140000        1 
H       1.87920000      -2.93130000      -1.51840000        1 
H      -2.59890000      -0.49370000       2.51540000        1 
H      -2.44290000       1.27950000       2.20660000        1 
H      -1.08240000       0.36280000       2.96610000        1 
H      -2.99000000       0.88800000      -0.26470000        1 
H      -3.14980000      -0.88210000       0.06160000        1 
H      -2.03120000      -0.30170000      -1.21870000        1 
H       1.31860000       1.77620000      -0.65090000        1 
H      -0.37740000       2.14820000       1.00810000        1 
H      -0.58750000       4.02210000       1.79080000        1 
