25
Properties=species:S:1:pos:R:3:Z:I:1 pbc="F F F"
O       1.51170000      -0.04270000      -0.55420000        8 
O       2.98830000       1.65630000      -1.08150000        8 
O      -2.53790000       1.37750000      -1.82580000        8 
C      -1.05900000      -0.64850000       0.78930000        6 
C      -0.91120000      -0.13740000      -0.66280000        6 
C       0.34750000       0.70490000      -0.89380000        6 
C      -1.28290000       0.50140000       1.78300000        6 
C      -2.22230000      -1.64470000       0.87580000        6 
C       3.97400000      -0.35900000      -0.28360000        6 
C       2.80260000       0.48090000      -0.66430000        6 
H      -0.13320000      -1.19060000       1.08310000        1 
H      -1.83230000       0.48470000      -0.95120000        1 
H      -0.86790000      -1.00740000      -1.35470000        1 
H       0.39400000       0.98820000      -1.96780000        1 
H       0.30510000       1.63950000      -0.29580000        1 
H      -1.47300000       0.09860000       2.80080000        1 
H      -2.15260000       1.12170000       1.47720000        1 
H      -0.38120000       1.14430000       1.84760000        1 
H      -3.17980000      -1.15430000       0.59650000        1 
H      -2.04570000      -2.50260000       0.19250000        1 
H      -2.31160000      -2.04430000       1.90870000        1 
H       4.53530000       0.13360000       0.53750000        1 
H       4.64230000      -0.48710000      -1.16060000        1 
H       3.63350000      -1.35830000       0.06030000        1 
H      -2.74370000       2.24520000      -2.25640000        1 
