33
Properties=species:S:1:pos:R:3:Z:I:1 pbc="F F F"
O      -1.47850000       0.36790000       1.21970000        8 
O      -4.66830000      -1.70180000      -0.81170000        8 
C      -0.81630000      -0.46610000       0.29380000        6 
C      -2.70640000       0.76840000       0.64910000        6 
C       0.67930000      -0.10870000       0.26300000        6 
C      -1.48710000      -0.31540000      -1.06500000        6 
C      -2.88190000       0.08200000      -0.70030000        6 
C       2.97250000      -0.69650000      -0.71630000        6 
C       1.50010000      -1.11310000      -0.56200000        6 
C       3.76710000      -0.72890000       0.60600000        6 
C      -2.72370000       2.29240000       0.51550000        6 
C       3.98460000       0.66770000       1.18840000        6 
H      -0.92990000      -1.51830000       0.64050000        1 
H      -3.53450000       0.46650000       1.32700000        1 
H       3.26440000      -1.37210000       1.36070000        1 
H       4.76740000      -1.17520000       0.41430000        1 
H       3.44600000      -1.41490000      -1.42100000        1 
H       3.03350000       0.30310000      -1.20090000        1 
H       1.44290000      -2.12020000      -0.09370000        1 
H       1.06610000      -1.19360000      -1.58170000        1 
H       1.05110000      -0.11650000       1.30960000        1 
H       0.81190000       0.91890000      -0.14170000        1 
H      -1.01560000       0.49700000      -1.66230000        1 
H      -1.47200000      -1.26570000      -1.64190000        1 
H      -3.52780000      -0.85890000      -0.57320000        1 
H      -3.33970000       0.73520000      -1.47600000        1 
H       3.01770000       1.17190000       1.38860000        1 
H       4.54520000       0.58780000       2.14350000        1 
H       4.57710000       1.28860000       0.48320000        1 
H      -3.69910000       2.63140000       0.10600000        1 
H      -2.58040000       2.75800000       1.51350000        1 
H      -1.90700000       2.63220000      -0.15720000        1 
H      -5.15880000      -2.00300000      -1.61750000        1 
