29
Properties=species:S:1:pos:R:3:Z:I:1 pbc="F F F"
O       0.40550000      -0.79840000      -0.15950000        8 
O      -2.64770000       2.66310000       0.01160000        8 
C      -0.39910000       0.31010000       0.22240000        6 
C       1.79050000      -0.54790000       0.01170000        6 
C      -1.11650000       0.87990000      -1.01680000        6 
C      -1.40580000      -0.14150000       1.30030000        6 
C       2.56400000      -1.47080000      -0.92900000        6 
C       2.20440000      -0.81490000       1.46410000        6 
C      -0.14160000       1.55410000      -1.97960000        6 
C      -2.28540000      -1.31840000       0.87120000        6 
H       0.17920000       1.14540000       0.68720000        1 
H       2.06760000       0.49590000      -0.26710000        1 
H      -1.89470000       1.65820000      -0.68920000        1 
H      -1.64330000       0.06810000      -1.56260000        1 
H      -0.84050000      -0.44290000       2.20850000        1 
H      -2.05710000       0.71270000       1.58760000        1 
H      -0.70490000       1.99150000      -2.83050000        1 
H       0.58170000       0.81390000      -2.38160000        1 
H       0.41070000       2.36880000      -1.46490000        1 
H      -2.96290000      -1.02310000       0.04370000        1 
H      -2.91250000      -1.63930000       1.72960000        1 
H      -1.66290000      -2.18090000       0.55290000        1 
H       2.26460000      -1.27120000      -1.97980000        1 
H       3.65660000      -1.29170000      -0.83620000        1 
H       2.34840000      -2.53550000      -0.69460000        1 
H       3.30190000      -0.68920000       1.58200000        1 
H       1.92260000      -1.84720000       1.76320000        1 
H       1.70280000      -0.09760000       2.14610000        1 
H      -2.72540000       3.44870000       0.60940000        1 
