28
Properties=species:S:1:pos:R:3:Z:I:1 pbc="F F F"
O      -2.24590000       2.41800000      -1.41680000        8 
C       2.26920000      -0.32340000      -0.51900000        6 
C       0.99720000      -1.06120000      -0.07600000        6 
C       2.73390000       1.04750000       1.66030000        6 
C      -2.68170000       0.02210000      -0.73400000        6 
C       2.43030000       1.00670000       0.18670000        6 
C      -1.50490000      -0.78690000      -0.24340000        6 
C      -0.25880000      -0.34680000      -0.51280000        6 
C      -1.73590000      -2.04650000       0.52170000        6 
C       2.32360000       2.15700000      -0.49480000        6 
C      -2.94930000      -2.51260000       0.82160000        6 
H       0.99830000      -1.17570000       1.02920000        1 
H       1.00920000      -2.07490000      -0.53170000        1 
H       2.24880000      -0.19490000      -1.62440000        1 
H       3.15350000      -0.95530000      -0.28730000        1 
H       1.91040000       1.56180000       2.19930000        1 
H       2.84390000       0.02310000       2.07380000        1 
H       3.68400000       1.59560000       1.83470000        1 
H      -2.36870000       0.93820000      -1.29570000        1 
H      -3.29670000       0.34870000       0.13070000        1 
H      -3.30270000      -0.59730000      -1.41470000        1 
H      -0.14020000       0.57160000      -1.07690000        1 
H      -0.89290000      -2.63300000       0.86210000        1 
H      -3.85480000      -2.00080000       0.52690000        1 
H      -3.04660000      -3.43480000       1.37990000        1 
H       2.10900000       2.16110000      -1.55910000        1 
H       2.44500000       3.11260000       0.00690000        1 
H      -2.87740000       3.18010000      -1.44740000        1 
