28
Properties=species:S:1:pos:R:3:Z:I:1 pbc="F F F"
O       0.89210000       3.51990000       0.39050000        8 
C      -0.90980000       0.21720000      -0.50870000        6 
C      -0.90450000       0.39530000       1.03470000        6 
C       0.63590000       0.30630000      -0.40880000        6 
C       0.46400000       1.09430000       0.90420000        6 
C      -0.61580000      -0.97450000       1.74130000        6 
C      -1.53820000      -1.07280000      -1.10720000        6 
C      -1.52390000       1.43910000      -1.23770000        6 
C       2.36060000      -1.68900000      -0.68630000        6 
C       1.19710000      -1.05810000       0.01710000        6 
C       0.59380000      -1.66560000       1.08040000        6 
H      -1.72050000       1.00960000       1.47260000        1 
H       1.16510000       0.83730000      -1.22950000        1 
H       0.37440000       2.22690000       0.73760000        1 
H       1.20450000       0.87450000       1.70860000        1 
H      -1.50860000      -1.63150000       1.67910000        1 
H      -0.39230000      -0.79750000       2.81480000        1 
H      -1.15500000      -2.02430000      -0.69750000        1 
H      -1.35470000      -1.10070000      -2.20230000        1 
H      -2.63570000      -1.06220000      -0.93750000        1 
H      -2.62650000       1.44470000      -1.10250000        1 
H      -1.13740000       2.40990000      -0.86820000        1 
H      -1.30150000       1.38210000      -2.32470000        1 
H       3.19660000      -1.83590000       0.02930000        1 
H       2.05690000      -2.67230000      -1.10290000        1 
H       2.71210000      -1.04350000      -1.51810000        1 
H       0.93870000      -2.62800000       1.44580000        1 
H       1.53220000       4.09880000       0.87600000        1 
