22
Properties=species:S:1:pos:R:3:Z:I:1 pbc="F F F"
O      -0.46940000       0.90940000      -0.78900000        8 
O      -1.04260000      -1.31960000      -0.55420000        8 
O       2.09970000       1.65930000       0.60670000        8 
C       1.07800000      -0.68380000       0.36940000        6 
C      -1.68530000       1.29470000      -1.42700000        6 
C       1.91260000      -1.70300000      -0.41190000        6 
C       0.79990000      -1.17750000       1.79230000        6 
C      -2.81230000       1.41610000      -0.40780000        6 
C      -0.20970000      -0.39350000      -0.34880000        6 
H       1.67040000       0.26840000       0.44160000        1 
H      -1.53330000       2.28310000      -1.90960000        1 
H      -1.95700000       0.56270000      -2.21830000        1 
H      -3.73560000       1.77040000      -0.91270000        1 
H      -2.53160000       2.14450000       0.38210000        1 
H      -3.01840000       0.43160000       0.06150000        1 
H       2.88600000      -1.86890000       0.09720000        1 
H       1.37940000      -2.67520000      -0.48870000        1 
H       2.11720000      -1.32330000      -1.43590000        1 
H       0.20630000      -0.42080000       2.34890000        1 
H       0.23610000      -2.13520000       1.77550000        1 
H       1.75640000      -1.33550000       2.33470000        1 
H       2.85330000       2.29590000       0.69370000        1 
