29
Properties=species:S:1:pos:R:3:Z:I:1 pbc="F F F"
O      -0.51430000       0.18170000      -0.95220000        8 
O       3.91350000      -2.42260000       1.19170000        8 
C       0.24680000       0.42800000       0.22100000        6 
C      -1.51270000      -0.80370000      -0.74170000        6 
C       1.50410000      -0.46910000       0.19650000        6 
C       0.63110000       1.91990000       0.24600000        6 
C      -1.70190000      -1.58410000      -2.04150000        6 
C      -2.82770000      -0.13110000      -0.33500000        6 
C       2.23670000      -0.50890000       1.53780000        6 
C      -0.60160000       2.82210000       0.29090000        6 
H      -0.33160000       0.22270000       1.15470000        1 
H      -1.22900000      -1.54720000       0.04130000        1 
H       1.20450000      -1.50950000      -0.05330000        1 
H       2.20390000      -0.12920000      -0.59780000        1 
H       1.22870000       2.17190000      -0.65730000        1 
H       1.24670000       2.14250000       1.14240000        1 
H       3.10090000      -1.30630000       1.48440000        1 
H       1.54080000      -0.79900000       2.35340000        1 
H       2.69250000       0.47490000       1.77100000        1 
H      -1.21560000       2.59260000       1.18760000        1 
H      -1.21930000       2.68620000      -0.62190000        1 
H      -0.28210000       3.88430000       0.34320000        1 
H      -2.00980000      -0.90310000      -2.86390000        1 
H      -0.74640000      -2.07440000      -2.32510000        1 
H      -2.47530000      -2.37120000      -1.91190000        1 
H      -3.14210000       0.60400000      -1.10660000        1 
H      -3.62770000      -0.89170000      -0.21000000        1 
H      -2.70270000       0.40130000       0.63080000        1 
H       4.38970000      -3.08100000       0.62560000        1 
