26
Properties=species:S:1:pos:R:3:Z:I:1 pbc="F F F"
O      -2.06140000       0.33580000       2.54910000        8 
C      -1.40450000      -0.68640000       0.33490000        6 
C      -2.09710000       0.05670000      -0.81680000        6 
C       0.06840000      -0.98980000       0.02550000        6 
C      -3.56400000       0.32450000      -0.49370000        6 
C       3.04150000      -0.99090000      -0.53170000        6 
C       2.99960000       1.56220000      -0.12680000        6 
C       2.25680000       0.25470000      -0.19060000        6 
C       0.92840000       0.25200000       0.05850000        6 
H      -1.59170000       1.02790000      -1.00500000        1 
H      -2.03970000      -0.55350000      -1.74440000        1 
H      -1.47850000      -0.07230000       1.30240000        1 
H      -1.93010000      -1.65150000       0.50620000        1 
H       0.14210000      -1.47470000      -0.97230000        1 
H       0.44410000      -1.70190000       0.79180000        1 
H      -4.03970000       0.86050000      -1.34190000        1 
H      -3.64940000       0.95440000       0.41730000        1 
H      -4.10450000      -0.63230000      -0.33060000        1 
H       2.42810000      -1.91290000      -0.54730000        1 
H       3.84830000      -1.13160000       0.21770000        1 
H       3.50350000      -0.86930000      -1.53380000        1 
H       2.90870000       1.99830000       0.89060000        1 
H       2.57660000       2.27270000      -0.86820000        1 
H       4.07800000       1.42040000      -0.35260000        1 
H       0.45090000       1.19810000       0.30420000        1 
H      -1.71430000       0.14880000       3.45750000        1 
