33
Properties=species:S:1:pos:R:3:Z:I:1 pbc="F F F"
O      -2.06580000       0.99340000      -0.09380000        8 
O      -1.94570000      -2.20690000       1.77380000        8 
C      -0.88910000       0.21320000      -0.02300000        6 
C      -3.11960000       0.17100000      -0.54300000        6 
C       0.18460000       0.84920000      -0.93080000        6 
C      -1.21550000      -1.22550000      -0.42510000        6 
C      -2.53520000      -1.10730000      -1.12060000        6 
C       2.25230000       1.01780000       0.56550000        6 
C       1.61000000       0.33360000      -0.65410000        6 
C       3.63770000       0.44390000       0.90120000        6 
C      -4.07600000      -0.11110000       0.61880000        6 
C       4.70160000       0.82200000      -0.12910000        6 
H      -0.53920000       0.22300000       1.03060000        1 
H      -3.68310000       0.70920000      -1.33620000        1 
H       3.95330000       0.84470000       1.88890000        1 
H       3.58220000      -0.66280000       0.99090000        1 
H       1.60480000       0.87330000       1.45530000        1 
H       2.33400000       2.11230000       0.38610000        1 
H       1.60560000      -0.76780000      -0.51130000        1 
H       2.22570000       0.55190000      -1.55220000        1 
H       0.16640000       1.95460000      -0.80690000        1 
H      -0.07470000       0.64650000      -1.99350000        1 
H      -1.33400000      -1.87310000       0.51580000        1 
H      -0.45680000      -1.69180000      -1.09020000        1 
H      -3.17380000      -2.00190000      -0.94990000        1 
H      -2.36930000      -0.98070000      -2.21370000        1 
H       4.73060000       1.92310000      -0.27270000        1 
H       4.50190000       0.32630000      -1.10140000        1 
H       5.69750000       0.48700000       0.22990000        1 
H      -3.55030000      -0.65170000       1.43480000        1 
H      -4.46890000       0.84650000       1.02150000        1 
H      -4.93430000      -0.72390000       0.26960000        1 
H      -2.35680000      -2.33810000       2.66510000        1 
