27
Properties=species:S:1:pos:R:3:Z:I:1 pbc="F F F"
O       4.00220000       0.45360000       0.82180000        8 
O       4.73400000       1.32660000       0.16160000        8 
C      -2.43010000      -0.02330000      -0.42390000        6 
C      -1.03130000      -0.62280000      -0.14540000        6 
C      -0.07010000       0.31730000       0.60950000        6 
C       1.28210000      -0.35060000       0.88640000        6 
C      -2.36860000       1.21180000      -1.33290000        6 
C      -3.20620000       0.28270000       0.86430000        6 
C       2.46260000      -1.73370000      -0.81560000        6 
C       2.06820000      -0.53480000      -0.38240000        6 
H      -3.00560000      -0.80210000      -0.97240000        1 
H      -0.51510000       0.59510000       1.58780000        1 
H       0.09800000       1.25020000       0.03020000        1 
H      -1.15760000      -1.55910000       0.44180000        1 
H      -0.57440000      -0.91050000      -1.11740000        1 
H       1.12510000      -1.31770000       1.41370000        1 
H       1.87270000       0.30500000       1.56080000        1 
H      -1.91780000       2.07760000      -0.80410000        1 
H      -3.39410000       1.49620000      -1.65180000        1 
H      -1.77220000       0.99150000      -2.24370000        1 
H      -2.76440000       1.14590000       1.40470000        1 
H      -3.20780000      -0.60360000       1.53390000        1 
H      -4.26070000       0.53150000       0.61830000        1 
H       2.22630000      -2.63790000      -0.26310000        1 
H       3.02700000      -1.80990000      -1.73820000        1 
H       3.24460000       0.10380000       0.08390000        1 
H       5.53330000       0.81730000      -0.12780000        1 
