27
Properties=species:S:1:pos:R:3:Z:I:1 pbc="F F F"
O       0.98870000       1.64160000      -1.64680000        8 
O       0.06850000       2.50550000      -1.27240000        8 
C      -1.94330000      -0.22210000      -0.23130000        6 
C      -0.72060000      -0.99290000       0.30480000        6 
C       1.80890000      -1.10450000       0.37660000        6 
C      -1.97590000       1.21840000       0.30070000        6 
C      -3.23780000      -0.95140000       0.14850000        6 
C       0.59130000      -0.40380000      -0.22300000        6 
C       3.06710000      -0.44410000      -0.11270000        6 
C       3.93420000       0.13630000       0.72220000        6 
H      -1.88860000      -0.18560000      -1.34220000        1 
H      -0.72250000      -0.96630000       1.41690000        1 
H      -0.78290000      -2.05660000      -0.01530000        1 
H       1.74790000      -1.06750000       1.48670000        1 
H       1.82010000      -2.17040000       0.06330000        1 
H      -2.86600000       1.75280000      -0.09470000        1 
H      -2.01820000       1.22580000       1.41120000        1 
H      -1.07300000       1.77500000      -0.02790000        1 
H      -3.34070000      -1.01870000       1.25310000        1 
H      -4.11770000      -0.41120000      -0.26180000        1 
H      -3.23820000      -1.97850000      -0.27510000        1 
H       0.61860000      -0.47080000      -1.33320000        1 
H       3.27950000      -0.44360000      -1.17810000        1 
H       4.83360000       0.60110000       0.33150000        1 
H       3.75840000       0.15550000       1.79340000        1 
H       0.86200000       0.73540000      -0.91330000        1 
H       0.54660000       3.14060000      -0.68090000        1 
