30
Properties=species:S:1:pos:R:3:Z:I:1 pbc="F F F"
C       1.85750000       1.30680000       0.18930000        6 
C       0.34370000       1.54520000       0.18070000        6 
C       2.62790000      -1.19220000       0.33230000        6 
C      -1.79730000      -1.44500000      -1.04750000        6 
C      -1.28350000       1.10070000      -3.00990000        6 
C       2.22950000       0.09100000       1.01010000        6 
C      -1.19150000      -0.47010000      -0.07680000        6 
C      -1.45680000      -0.58030000       1.37890000        6 
C       2.20510000       0.14880000       2.34980000        6 
C      -2.63000000      -0.98000000       1.86660000        6 
C      -0.36510000       0.45720000      -0.58160000        6 
H       2.36780000       2.20200000       0.60730000        1 
H       2.21760000       1.19710000      -0.85700000        1 
H       0.13960000       2.50510000      -0.33870000        1 
H      -0.03460000       1.66240000       1.21670000        1 
H       1.93580000      -2.00610000       0.63600000        1 
H       2.58490000      -1.09540000      -0.77270000        1 
H       3.66410000      -1.46590000       0.62310000        1 
H      -0.99740000      -1.91280000      -1.66090000        1 
H      -2.33840000      -2.26350000      -0.53000000        1 
H      -2.50510000      -0.91490000      -1.71930000        1 
H      -0.72610000       0.72120000      -1.86290000        1 
H      -1.16920000       0.29290000      -3.76160000        1 
H      -2.36170000       1.30490000      -2.84740000        1 
H      -0.78410000       2.02090000      -3.37700000        1 
H      -0.68220000      -0.31180000       2.08480000        1 
H       2.46730000      -0.71840000       2.94870000        1 
H       1.92050000       1.06260000       2.86260000        1 
H      -2.77590000      -1.04000000       2.93730000        1 
H      -3.46240000      -1.22270000       1.21920000        1 
