27
Properties=species:S:1:pos:R:3:Z:I:1 pbc="F F F"
O      -1.67930000       2.08970000       0.62270000        8 
O      -1.19230000       3.17270000       0.05430000        8 
C      -1.68770000      -0.78950000      -0.40900000        6 
C       0.82680000      -0.26890000      -0.40820000        6 
C       1.87270000       0.68210000       0.17500000        6 
C      -1.62510000      -2.30300000      -0.16350000        6 
C      -3.01510000      -0.22220000       0.09970000        6 
C      -0.52500000      -0.05450000       0.27870000        6 
C       3.19520000       0.49360000      -0.51750000        6 
C       4.29050000       0.10340000       0.14080000        6 
H      -1.64030000      -0.60460000      -1.50500000        1 
H       1.54480000       1.73350000       0.02590000        1 
H       1.96760000       0.50270000       1.26930000        1 
H       1.16100000      -1.31830000      -0.25920000        1 
H       0.72360000      -0.07480000      -1.49850000        1 
H      -0.70670000      -2.73250000      -0.61450000        1 
H      -2.49760000      -2.80330000      -0.63550000        1 
H      -1.63170000      -2.52550000       0.92520000        1 
H      -3.86610000      -0.70680000      -0.42510000        1 
H      -3.12280000      -0.39350000       1.19270000        1 
H      -3.06370000       0.87010000      -0.09850000        1 
H      -0.46840000      -0.31100000       1.35990000        1 
H       3.26060000       0.68420000      -1.58490000        1 
H       4.26520000      -0.09660000       1.20760000        1 
H       5.22740000      -0.02050000      -0.39240000        1 
H      -0.89950000       1.24880000       0.37760000        1 
H      -0.71380000       3.64460000       0.78240000        1 
