24
Properties=species:S:1:pos:R:3:Z:I:1 pbc="F F F"
O       1.82740000       0.48050000      -0.79840000        8 
O       2.48030000      -1.35330000       0.45440000        8 
C      -0.28760000       0.39540000       0.39960000        6 
C       0.45920000       0.09220000      -0.90770000        6 
C      -2.59740000       0.86090000      -0.63480000        6 
C      -2.04890000      -1.47000000       0.21860000        6 
C       4.17790000       0.26100000       0.00610000        6 
C      -1.78490000       0.03120000       0.36310000        6 
C       2.78320000      -0.25740000      -0.09170000        6 
H      -0.18770000       1.47810000       0.62930000        1 
H       0.18940000      -0.15850000       1.23570000        1 
H       0.39480000      -0.98650000      -1.16520000        1 
H       0.00600000       0.67300000      -1.73710000        1 
H       4.16940000       1.25200000       0.50560000        1 
H       4.81490000      -0.43440000       0.59310000        1 
H       4.60440000       0.36920000      -1.01270000        1 
H      -2.36210000       0.56740000      -1.67940000        1 
H      -2.38160000       1.94150000      -0.49960000        1 
H      -3.68120000       0.69940000      -0.45650000        1 
H      -1.44670000      -2.03780000       0.95860000        1 
H      -3.12190000      -1.67900000       0.41220000        1 
H      -1.79800000      -1.82040000      -0.80460000        1 
H      -2.22310000       0.76420000       2.43290000        1 
H      -1.98570000       0.33120000       1.57840000        1 
