26
Properties=species:S:1:pos:R:3:Z:I:1 pbc="F F F"
O       1.11180000      -1.39940000      -1.60170000        8 
O      -1.81890000       2.19990000      -0.22670000        8 
O      -1.89560000       3.25730000       0.55380000        8 
O       2.04190000       0.68950000      -1.96300000        8 
C       0.13470000      -0.50800000       0.43910000        6 
C      -0.09710000      -0.91410000      -1.02020000        6 
C      -0.75360000       0.92720000       2.32870000        6 
C      -2.24300000      -0.83850000       1.31890000        6 
C       3.39590000      -1.17510000      -2.57790000        6 
C      -1.11070000       0.16100000       1.05150000        6 
C       2.15050000      -0.56530000      -2.02980000        6 
H       0.98260000       0.20970000       0.46940000        1 
H       0.42700000      -1.39990000       1.03560000        1 
H      -0.48720000      -0.05530000      -1.60980000        1 
H      -0.84630000      -1.73090000      -1.06410000        1 
H       4.12080000      -0.38750000      -2.87500000        1 
H       3.86150000      -1.82180000      -1.80550000        1 
H       3.14610000      -1.79040000      -3.46710000        1 
H      -1.65320000       1.43950000       2.73040000        1 
H      -0.35410000       0.23460000       3.10040000        1 
H       0.00900000       1.70300000       2.10650000        1 
H      -1.89940000      -1.64750000       1.99860000        1 
H      -3.10640000      -0.31930000       1.78600000        1 
H      -2.60020000      -1.28510000       0.36920000        1 
H      -1.49580000       1.30690000       0.50290000        1 
H      -1.02040000       3.70970000       0.44970000        1 
