21
Properties=species:S:1:pos:R:3:Z:I:1 pbc="F F F"
O       2.06590000      -0.87430000      -0.72340000        8 
O       3.29200000      -0.41850000      -0.57490000        8 
C      -1.42330000      -0.57660000      -1.23480000        6 
C      -1.40430000      -1.36190000       0.07630000        6 
C      -0.72500000       0.74410000      -0.95720000        6 
C      -0.48530000      -0.61010000       1.03620000        6 
C       0.60480000       1.69350000       0.99190000        6 
C       0.21510000       0.44730000       0.19640000        6 
H      -2.46340000      -0.40900000      -1.59010000        1 
H      -0.86210000      -1.13690000      -2.01520000        1 
H      -1.02330000      -2.39190000      -0.09920000        1 
H      -2.42980000      -1.42980000       0.50140000        1 
H      -0.16020000       1.09890000      -1.84550000        1 
H      -1.48040000       1.50700000      -0.66300000        1 
H      -1.09430000      -0.13950000       1.84030000        1 
H       0.26290000      -1.29190000       1.49360000        1 
H       1.29810000       1.41080000       1.81160000        1 
H      -0.29270000       2.18250000       1.42780000        1 
H       1.12290000       2.41450000       0.32550000        1 
H       1.36640000      -0.02000000      -0.25990000        1 
H       3.61580000      -0.83820000       0.26220000        1 
