19
Properties=species:S:1:pos:R:3:Z:I:1 pbc="F F F"
C      -1.57500000      -0.53260000      -0.36410000        6 
C      -1.33330000       0.97530000      -0.39180000        6 
C      -0.40140000      -1.15580000       0.38220000        6 
C      -0.01940000       1.22700000       0.33830000        6 
C       1.65740000      -0.28530000      -0.80660000        6 
C       0.70740000      -0.11110000       0.38460000        6 
H      -1.61370000      -0.92840000      -1.40290000        1 
H      -2.53360000      -0.77240000       0.14570000        1 
H      -2.16600000       1.52090000       0.10350000        1 
H      -1.25230000       1.32580000      -1.44440000        1 
H      -0.69600000      -1.35450000       1.43550000        1 
H      -0.08620000      -2.11630000      -0.08160000        1 
H       0.57750000       2.02360000      -0.15780000        1 
H      -0.23110000       1.54550000       1.38210000        1 
H       2.44210000       0.49950000      -0.77920000        1 
H       2.15770000      -1.27460000      -0.74660000        1 
H       1.10630000      -0.21470000      -1.76920000        1 
H       1.86330000      -0.20620000       2.32050000        1 
H       1.39650000      -0.16570000       1.45190000        1 
