34
Properties=species:S:1:pos:R:3:Z:I:1 pbc="F F F"
O      -1.34670000       0.04800000      -1.30340000        8 
O       4.61830000       0.58010000      -0.32010000        8 
O       4.59850000       1.06250000      -1.54490000        8 
C      -1.37590000      -1.35010000      -1.12770000        6 
C      -2.51110000       0.58530000      -0.71240000        6 
C      -3.36670000      -0.54800000      -0.15240000        6 
C      -2.41260000      -1.69880000      -0.06880000        6 
C       0.02830000      -1.90640000      -0.80870000        6 
C       0.78700000      -1.14760000       0.30180000        6 
C       1.60850000       0.03270000      -0.24550000        6 
C      -2.10890000       1.58270000       0.37560000        6 
C       1.58170000       1.59300000       1.77940000        6 
C       2.42630000       0.72700000       0.84920000        6 
H      -3.08710000       1.13270000      -1.49050000        1 
H      -1.70640000      -1.80470000      -2.08910000        1 
H      -3.81650000      -0.31650000       0.83860000        1 
H      -4.18140000      -0.79150000      -0.87040000        1 
H      -2.91660000      -2.66470000      -0.29120000        1 
H      -1.97150000      -1.74280000       0.94980000        1 
H       0.63520000      -1.91290000      -1.74060000        1 
H      -0.07990000      -2.97060000      -0.50340000        1 
H       0.08520000      -0.79500000       1.08300000        1 
H       1.48740000      -1.86110000       0.78880000        1 
H       2.32290000      -0.34560000      -1.00760000        1 
H       0.95410000       0.77780000      -0.74210000        1 
H      -1.45790000       2.37060000      -0.05910000        1 
H      -1.55370000       1.06980000       1.18900000        1 
H      -3.01200000       2.06800000       0.80310000        1 
H       2.25380000       2.15990000       2.45620000        1 
H       0.90790000       0.96500000       2.39790000        1 
H       0.98070000       2.31830000       1.19180000        1 
H       3.03270000      -0.00290000       1.42800000        1 
H       3.56120000       0.83700000       0.11790000        1 
H       5.03510000       1.94900000      -1.47250000        1 
