24
Properties=species:S:1:pos:R:3:Z:I:1 pbc="F F F"
O      -1.63800000       2.21420000      -0.54680000        8 
O       3.34810000       1.03480000      -0.50130000        8 
O       3.45640000       1.87960000       0.50250000        8 
C      -1.20760000      -0.10360000      -0.04540000        6 
C       0.24740000       0.12400000       0.45340000        6 
C      -2.08860000       1.13040000       0.21900000        6 
C      -1.83450000      -1.33550000       0.62670000        6 
C       1.37080000      -1.89370000      -0.66200000        6 
C       1.31220000      -0.37600000      -0.53220000        6 
H      -1.20860000      -0.28040000      -1.14450000        1 
H       0.44360000       1.20830000       0.59640000        1 
H       0.41070000      -0.34530000       1.44840000        1 
H      -3.14250000       0.90430000      -0.06070000        1 
H      -2.05840000       1.39200000       1.30140000        1 
H      -1.21800000      -2.23990000       0.45090000        1 
H      -1.92620000      -1.17840000       1.72310000        1 
H      -2.84590000      -1.52700000       0.20870000        1 
H       1.42610000      -2.36760000       0.34060000        1 
H       0.48240000      -2.27020000      -1.21000000        1 
H       2.27910000      -2.17260000      -1.23490000        1 
H       1.19480000       0.10170000      -1.52900000        1 
H      -2.22910000       2.97790000      -0.31810000        1 
H       2.38730000       0.40740000      -0.25970000        1 
H       3.03830000       2.71540000       0.17330000        1 
