26
Properties=species:S:1:pos:R:3:Z:I:1 pbc="F F F"
O       1.71080000      -0.19210000       0.22980000        8 
O      -0.44580000       2.83380000       0.17150000        8 
O       0.20660000       3.23720000      -0.89840000        8 
O       2.72060000      -2.09140000      -0.61840000        8 
C      -2.09160000       0.07960000       0.26740000        6 
C       0.38420000      -0.66610000       0.02770000        6 
C      -2.53970000      -1.20660000       0.97290000        6 
C      -2.43160000       0.03920000      -1.22670000        6 
C       4.19580000      -0.37400000       0.13450000        6 
C      -0.60270000       0.39840000       0.51080000        6 
C       2.83930000      -0.94320000      -0.10990000        6 
H      -2.67080000       0.91960000       0.71020000        1 
H       0.23390000      -0.86610000      -1.05350000        1 
H       0.24130000      -1.60570000       0.60270000        1 
H      -3.64420000      -1.30700000       0.90860000        1 
H      -2.25620000      -1.17460000       2.04650000        1 
H      -2.08040000      -2.10150000       0.50260000        1 
H      -1.99160000      -0.85490000      -1.71600000        1 
H      -3.53380000       0.00070000      -1.36120000        1 
H      -2.05220000       0.95340000      -1.73110000        1 
H       4.98440000      -1.08750000      -0.18650000        1 
H       4.31850000      -0.16280000       1.21710000        1 
H       4.30880000       0.57060000      -0.43690000        1 
H      -0.42850000       0.61380000       1.58780000        1 
H      -0.52380000       1.66990000       0.05100000        1 
H       1.14890000       3.31720000      -0.60240000        1 
