42
Properties=species:S:1:pos:R:3:Z:I:1 pbc="F F F"
O      -1.80210000       0.06720000       0.08960000        8 
O       1.27260000      -0.82240000       0.23340000        8 
O      -1.17580000       2.63980000       0.97890000        8 
C       2.63300000      -0.76780000      -0.19500000        6 
C      -2.02550000      -1.25390000      -0.41640000        6 
C      -0.73770000       0.26760000       1.01510000        6 
C       0.62110000       0.43390000       0.29820000        6 
C       2.83710000       0.05750000      -1.48970000        6 
C       3.04270000      -2.22000000      -0.49330000        6 
C       3.54530000      -0.23600000       0.93210000        6 
C      -1.26650000      -1.44020000      -1.74470000        6 
C      -3.53140000      -1.33110000      -0.72550000        6 
C      -1.69440000      -2.41900000       0.55220000        6 
C      -1.07330000       1.53020000       1.82150000        6 
C      -1.79950000       5.00600000       0.41140000        6 
H      -0.66440000      -0.53160000       1.77990000        1 
H       0.43100000       0.83250000      -0.72190000        1 
H       1.24330000       1.16990000       0.84910000        1 
H      -0.29210000       1.72250000       2.58830000        1 
H      -2.04140000       1.38820000       2.34780000        1 
H       3.86930000      -0.07530000      -1.88030000        1 
H       2.69550000       1.14320000      -1.30350000        1 
H       2.11960000      -0.26940000      -2.27270000        1 
H       2.39970000      -2.64380000      -1.29490000        1 
H       2.91920000      -2.85020000       0.41410000        1 
H       4.10290000      -2.28170000      -0.82270000        1 
H       3.42100000       0.85600000       1.08150000        1 
H       4.61520000      -0.40990000       0.68580000        1 
H       3.31460000      -0.75260000       1.88840000        1 
H      -1.44510000      -0.57270000      -2.41580000        1 
H      -0.17740000      -1.53700000      -1.58530000        1 
H      -1.60280000      -2.36330000      -2.26500000        1 
H      -3.82260000      -0.52950000      -1.43860000        1 
H      -3.80550000      -2.31210000      -1.17160000        1 
H      -4.12170000      -1.19100000       0.20590000        1 
H      -2.04650000      -3.38580000       0.13130000        1 
H      -0.60140000      -2.52390000       0.70940000        1 
H      -2.19870000      -2.26950000       1.53100000        1 
H      -1.48210000       3.83150000       0.77870000        1 
H      -2.65800000       4.95500000      -0.28930000        1 
H      -0.93510000       5.48080000      -0.09670000        1 
H      -2.08230000       5.60750000       1.29960000        1 
