18
Properties=species:S:1:pos:R:3:Z:I:1 pbc="F F F"
O       1.83280000       1.81270000       0.61080000        8 
O       2.66750000       1.48670000      -0.35380000        8 
O      -1.24370000      -1.85390000      -1.59100000        8 
C      -1.92540000       0.33910000      -0.80450000        6 
C      -1.30140000       1.17730000       0.32380000        6 
C       0.97670000      -1.83020000       0.50170000        6 
C      -0.05900000      -0.79350000       0.20610000        6 
C      -1.08410000      -0.87970000      -0.80900000        6 
C      -0.16340000       0.35330000       0.85330000        6 
H      -2.98140000       0.07930000      -0.57600000        1 
H      -1.85310000       0.86260000      -1.78200000        1 
H      -2.03930000       1.36420000       1.13300000        1 
H      -0.91670000       2.14350000      -0.06690000        1 
H       1.98960000      -1.39910000       0.35740000        1 
H       0.86090000      -2.70340000      -0.17380000        1 
H       0.87220000      -2.17490000       1.55190000        1 
H       1.00240000       1.07490000       0.52820000        1 
H       3.36530000       0.94130000       0.09090000        1 
