30
Properties=species:S:1:pos:R:3:Z:I:1 pbc="F F F"
C      -1.34940000       0.30520000       0.34260000        6 
C      -0.70640000       1.50330000      -0.40980000        6 
C      -1.05410000      -0.51120000      -0.94340000        6 
C      -1.07580000       0.80970000      -1.73720000        6 
C       0.85780000       1.43200000      -0.31480000        6 
C      -2.86830000       0.50650000       0.57520000        6 
C      -0.71000000      -0.16440000       1.67950000        6 
C       0.81110000      -2.35450000      -1.26660000        6 
C       3.22760000      -0.06720000       1.25670000        6 
C       0.41640000      -0.94770000      -0.94160000        6 
C       1.34400000       0.00830000      -0.65120000        6 
H      -1.16170000       2.50360000      -0.24420000        1 
H      -1.80360000      -1.27560000      -1.24270000        1 
H      -2.09100000       1.08010000      -2.09980000        1 
H      -0.32920000       0.89960000      -2.56070000        1 
H       1.19210000       1.71420000       0.70530000        1 
H       1.30610000       2.14830000      -1.03530000        1 
H      -3.40810000       0.85100000      -0.32960000        1 
H      -3.03140000       1.26420000       1.37110000        1 
H      -3.33160000      -0.45020000       0.89770000        1 
H       0.37240000      -0.38110000       1.64020000        1 
H      -0.85910000       0.61660000       2.45490000        1 
H      -1.20910000      -1.09570000       2.02190000        1 
H       1.91410000      -2.48240000      -1.22200000        1 
H       0.46130000      -2.60960000      -2.28850000        1 
H       0.34050000      -3.04650000      -0.53750000        1 
H       2.23500000       0.00610000       0.37360000        1 
H       2.94310000      -0.75870000       2.07620000        1 
H       4.14200000      -0.44490000       0.75470000        1 
H       3.42520000       0.94100000       1.67530000        1 
