21
Properties=species:S:1:pos:R:3:Z:I:1 pbc="F F F"
O       2.78400000       0.78180000       0.21760000        8 
O       3.66920000       0.23890000      -0.59160000        8 
C      -0.41050000       0.53160000       0.55840000        6 
C      -1.78100000      -0.05040000       0.24200000        6 
C      -1.57200000      -1.55690000       0.18680000        6 
C      -0.08470000      -1.78340000      -0.08400000        6 
C      -0.25770000       1.97690000       0.07640000        6 
C       0.58270000      -0.41450000      -0.10110000        6 
H      -0.24600000       0.49770000       1.65860000        1 
H      -2.52620000       0.22740000       1.01890000        1 
H      -2.13810000       0.30480000      -0.75080000        1 
H      -2.19790000      -2.01210000      -0.61160000        1 
H      -1.85040000      -2.01080000       1.16350000        1 
H       0.36350000      -2.39680000       0.72690000        1 
H       0.06680000      -2.30460000      -1.05460000        1 
H      -1.00320000       2.62420000       0.58510000        1 
H       0.75900000       2.35060000       0.32150000        1 
H      -0.41120000       2.04830000      -1.02200000        1 
H       0.76680000      -0.11450000      -1.15730000        1 
H       1.78410000       0.21310000      -0.01070000        1 
H       3.70290000       0.84850000      -1.37200000        1 
