28
Properties=species:S:1:pos:R:3:Z:I:1 pbc="F F F"
C       1.94800000       1.01220000       1.05090000        6 
C       0.54090000       0.92300000       0.41420000        6 
C       0.26960000      -0.38310000      -0.35440000        6 
C       3.06840000       0.98640000       0.00240000        6 
C       2.17710000      -0.06110000       2.12380000        6 
C      -2.93210000       0.33150000      -2.39700000        6 
C      -2.43690000      -2.00860000       0.78530000        6 
C      -1.52660000       0.39840000      -1.89340000        6 
C      -1.12760000      -0.40860000      -0.90470000        6 
H       2.00340000       1.99930000       1.56200000        1 
H      -0.22090000       1.03390000       1.21760000        1 
H       0.41250000       1.78700000      -0.27420000        1 
H       0.98850000      -0.50750000      -1.19140000        1 
H       0.37070000      -1.24990000       0.32980000        1 
H       2.87400000       1.74140000      -0.78880000        1 
H       4.03970000       1.23150000       0.48280000        1 
H       3.15670000      -0.01620000      -0.46610000        1 
H       2.26470000      -1.07060000       1.67030000        1 
H       1.34010000      -0.06190000       2.85410000        1 
H       3.11690000       0.15320000       2.67610000        1 
H      -3.64090000       0.56610000      -1.57480000        1 
H      -3.07260000       1.07010000      -3.21370000        1 
H      -3.14610000      -0.68450000      -2.79090000        1 
H      -1.75620000      -1.12030000       0.06560000        1 
H      -3.40380000      -2.22560000       0.28650000        1 
H      -2.62730000      -1.59660000       1.79760000        1 
H      -1.84720000      -2.94430000       0.87170000        1 
H      -0.83310000       1.10480000      -2.34130000        1 
