24
Properties=species:S:1:pos:R:3:Z:I:1 pbc="F F F"
O       3.01790000      -0.30480000       1.22310000        8 
O      -1.35000000      -2.25860000       0.80380000        8 
O      -2.37050000      -1.88900000       1.54890000        8 
C       1.06270000       0.19320000      -0.12030000        6 
C      -1.34270000       0.75580000      -0.88240000        6 
C       1.75880000      -0.78800000       0.83720000        6 
C       1.87430000       0.36140000      -1.41440000        6 
C      -1.88760000       1.55360000       0.29830000        6 
C      -0.35770000      -0.32370000      -0.41780000        6 
H       1.00140000       1.17940000       0.38770000        1 
H      -0.87200000       1.44150000      -1.61740000        1 
H      -2.19870000       0.25720000      -1.38620000        1 
H       1.89300000      -1.77260000       0.33900000        1 
H       1.12620000      -0.95370000       1.73980000        1 
H       1.97740000      -0.61040000      -1.94330000        1 
H       1.38210000       1.08700000      -2.09410000        1 
H       2.88850000       0.75140000      -1.18490000        1 
H      -1.08170000       2.14030000       0.78530000        1 
H      -2.66500000       2.26070000      -0.06040000        1 
H      -2.34680000       0.87090000       1.04500000        1 
H      -0.32980000      -1.17040000      -1.13870000        1 
H       2.85460000       0.42170000       1.87980000        1 
H      -0.87910000      -1.25370000       0.42480000        1 
H      -3.15540000      -1.94930000       0.94720000        1 
