27
Properties=species:S:1:pos:R:3:Z:I:1 pbc="F F F"
O      -1.01070000       2.11820000      -1.12990000        8 
O      -2.13230000       2.62990000      -0.66800000        8 
C      -2.47050000      -0.37600000       0.29250000        6 
C       0.03660000      -0.89300000       0.24920000        6 
C      -2.99950000      -1.80030000       0.44980000        6 
C       2.27490000       0.86660000       1.26230000        6 
C       3.50820000       0.37590000      -0.97970000        6 
C       2.31210000       0.18230000      -0.08310000        6 
C      -1.16400000      -0.32250000      -0.50700000        6 
C       1.29970000      -0.59910000      -0.52140000        6 
H      -2.32440000       0.08280000       1.29410000        1 
H      -3.23100000       0.22760000      -0.24680000        1 
H       0.05950000      -0.47300000       1.27480000        1 
H      -0.06510000      -1.99490000       0.33880000        1 
H      -3.11940000      -2.28160000      -0.54410000        1 
H      -2.31030000      -2.40690000       1.07350000        1 
H      -3.98970000      -1.77310000       0.95150000        1 
H       3.18350000       1.48050000       1.43330000        1 
H       1.39380000       1.54010000       1.32010000        1 
H       2.22070000       0.10800000       2.07130000        1 
H       4.27050000       1.03440000      -0.51390000        1 
H       3.18830000       0.83850000      -1.93750000        1 
H       3.98130000      -0.60640000      -1.19140000        1 
H      -1.28420000      -0.81210000      -1.49860000        1 
H       1.38380000      -1.05800000      -1.50400000        1 
H      -1.10460000       0.96650000      -0.92980000        1 
H      -1.90720000       2.94560000       0.24390000        1 
