25
Properties=species:S:1:pos:R:3:Z:I:1 pbc="F F F"
C      -1.88080000       0.16260000       0.18130000        6 
C       2.18840000       0.16190000      -0.18860000        6 
C      -1.56080000       0.92860000      -1.10910000        6 
C      -2.80150000       0.99080000       1.08080000        6 
C       3.54140000       0.03450000      -0.88120000        6 
C      -0.60000000      -0.19560000       0.94810000        6 
C       1.42270000      -1.13630000      -0.23870000        6 
C       0.18470000      -1.28810000       0.26360000        6 
H      -2.41980000      -0.77380000      -0.08510000        1 
H       2.35630000       0.45300000       0.87060000        1 
H       1.60230000       0.95860000      -0.69550000        1 
H       4.07900000       1.00470000      -0.82840000        1 
H       4.15910000      -0.74170000      -0.38080000        1 
H       3.40320000      -0.23740000      -1.94960000        1 
H      -1.01660000       1.87050000      -0.88210000        1 
H      -2.49930000       1.17790000      -1.64860000        1 
H      -0.93420000       0.30600000      -1.78220000        1 
H      -2.31460000       1.94810000       1.36740000        1 
H      -3.04470000       0.42190000       2.00380000        1 
H      -3.75240000       1.21610000       0.55230000        1 
H       1.88270000      -1.99870000      -0.71470000        1 
H      -0.00240000       0.71220000       1.17620000        1 
H      -0.29250000      -2.25880000       0.16690000        1 
H      -0.90570000      -2.37900000       1.36080000        1 
H      -0.79470000      -1.33770000       1.41270000        1 
