28
Properties=species:S:1:pos:R:3:Z:I:1 pbc="F F F"
C      -1.65350000      -0.99480000       0.73410000        6 
C       2.50960000      -0.08930000      -0.82650000        6 
C      -1.08040000       0.42380000       0.52540000        6 
C      -2.12430000      -1.61230000      -0.59120000        6 
C      -2.81440000      -0.95250000       1.73500000        6 
C       3.71290000      -0.76240000      -0.17410000        6 
C       0.21580000       2.95380000      -1.05230000        6 
C       1.31190000      -0.11680000       0.07830000        6 
C       0.15900000       0.42590000      -0.32650000        6 
H      -0.86330000      -1.64910000       1.16410000        1 
H       2.76880000       0.96510000      -1.06450000        1 
H       2.26840000      -0.61850000      -1.77390000        1 
H      -0.83580000       0.88530000       1.50730000        1 
H      -1.84280000       1.06500000       0.03290000        1 
H       3.98650000      -0.23600000       0.76540000        1 
H       3.48340000      -1.82550000       0.05330000        1 
H       4.57990000      -0.72640000      -0.86690000        1 
H      -2.54070000      -2.62700000      -0.41470000        1 
H      -1.27270000      -1.71380000      -1.29670000        1 
H      -2.90810000      -0.98060000      -1.06190000        1 
H      -3.63780000      -0.31050000       1.35410000        1 
H      -2.46590000      -0.54850000       2.70950000        1 
H      -3.20890000      -1.97630000       1.90970000        1 
H       0.27600000       1.63440000      -0.89160000        1 
H      -0.64390000       3.35730000      -0.47880000        1 
H       1.15520000       3.41450000      -0.68360000        1 
H       0.08580000       3.18970000      -2.12850000        1 
H       1.37920000      -0.57470000       1.06240000        1 
