34
Properties=species:S:1:pos:R:3:Z:I:1 pbc="F F F"
O      -1.27750000       0.04360000       0.65120000        8 
O       2.11960000      -2.83080000      -0.71490000        8 
O       2.95830000      -2.87270000       0.29900000        8 
C      -1.27120000      -0.77980000      -0.49410000        6 
C      -2.62140000       0.27190000       1.01870000        6 
C      -3.53860000      -0.50650000       0.08160000        6 
C      -2.66510000      -0.77750000      -1.10230000        6 
C       3.11190000       0.42980000       0.38970000        6 
C      -0.21650000      -0.29780000      -1.50190000        6 
C       1.73660000       0.72930000      -0.21240000        6 
C      -2.90450000       1.77440000       0.96920000        6 
C       3.65210000       1.63300000       1.15720000        6 
C       1.20710000      -0.49580000      -0.96490000        6 
H      -2.77420000      -0.07940000       2.06270000        1 
H      -1.02310000      -1.81890000      -0.17830000        1 
H      -3.83090000      -1.46930000       0.55710000        1 
H      -4.45810000       0.05040000      -0.20520000        1 
H      -2.90930000      -1.75100000      -1.58100000        1 
H      -2.78220000       0.04600000      -1.84250000        1 
H       3.03490000      -0.43570000       1.08370000        1 
H       3.82810000       0.16930000      -0.42020000        1 
H      -0.32080000      -0.90100000      -2.43070000        1 
H      -0.39380000       0.76670000      -1.77330000        1 
H       1.03760000       1.00470000       0.60430000        1 
H       1.81620000       1.58740000      -0.91560000        1 
H      -2.76060000       2.16250000      -0.06200000        1 
H      -2.21010000       2.30940000       1.65120000        1 
H      -3.94630000       1.98020000       1.29530000        1 
H       3.75930000       2.50660000       0.47930000        1 
H       4.64900000       1.38710000       1.57990000        1 
H       2.96810000       1.89750000       1.99160000        1 
H       1.89340000      -0.73330000      -1.80750000        1 
H       1.69880000      -1.73630000      -0.70790000        1 
H       2.43340000      -3.26390000       1.04280000        1 
