27
Properties=species:S:1:pos:R:3:Z:I:1 pbc="F F F"
O       0.79890000       2.57580000      -0.74090000        8 
O      -0.22290000       3.40600000      -0.75530000        8 
C      -1.65910000      -0.94880000      -0.43420000        6 
C       2.73450000       0.16700000       0.12940000        6 
C       1.34590000      -0.39740000      -0.18850000        6 
C      -2.45460000      -1.84500000       0.51810000        6 
C      -2.56170000      -0.40540000      -1.54460000        6 
C       3.09970000       0.01150000       1.60560000        6 
C      -1.05090000       0.20250000       0.33790000        6 
C       0.26650000       0.43860000       0.44170000        6 
H      -0.87810000      -1.57610000      -0.91290000        1 
H       2.78250000       1.24120000      -0.15490000        1 
H       3.48800000      -0.37830000      -0.47920000        1 
H       1.27510000      -1.44580000       0.17520000        1 
H       1.20730000      -0.39330000      -1.29120000        1 
H      -2.89020000      -2.70290000      -0.03750000        1 
H      -3.27800000      -1.27570000       1.00130000        1 
H      -1.78510000      -2.24790000       1.30820000        1 
H      -3.38840000       0.20410000      -1.11920000        1 
H      -1.96950000       0.22830000      -2.23920000        1 
H      -2.99850000      -1.24410000      -2.12790000        1 
H       2.39770000       0.58780000       2.24460000        1 
H       3.07000000      -1.05910000       1.90030000        1 
H       4.12700000       0.39710000       1.77560000        1 
H      -1.72250000       0.88780000       0.84610000        1 
H       0.38690000       1.62680000      -0.32820000        1 
H      -0.12030000       3.94550000       0.06960000        1 
