28
Properties=species:S:1:pos:R:3:Z:I:1 pbc="F F F"
C      -1.96110000       0.47670000       0.11590000        6 
C       2.17600000      -1.31900000       0.36600000        6 
C       1.58070000      -0.72640000      -0.91680000        6 
C      -2.34250000       0.35970000       1.59380000        6 
C      -3.13800000       0.08370000      -0.78060000        6 
C       3.43300000      -2.12980000       0.06500000        6 
C       0.42080000       2.76490000      -0.25250000        6 
C      -0.77650000      -0.40540000      -0.17770000        6 
C       0.37360000       0.11590000      -0.62080000        6 
H      -1.70750000       1.54110000      -0.09270000        1 
H       2.43610000      -0.49940000       1.07120000        1 
H       1.43270000      -1.98330000       0.85790000        1 
H       2.33800000      -0.07850000      -1.40740000        1 
H       1.30290000      -1.53750000      -1.62510000        1 
H      -2.62530000      -0.68520000       1.84670000        1 
H      -1.48600000       0.66410000       2.23310000        1 
H      -3.19990000       1.02840000       1.82160000        1 
H      -3.44260000      -0.96880000      -0.59300000        1 
H      -2.85420000       0.18990000      -1.84960000        1 
H      -4.00640000       0.74850000      -0.58490000        1 
H       3.19470000      -2.96990000      -0.62170000        1 
H       4.20730000      -1.48340000      -0.40050000        1 
H       3.84070000      -2.54790000       1.00950000        1 
H       0.33310000       1.44290000      -0.37470000        1 
H       0.18520000       3.05620000       0.79170000        1 
H       1.45050000       3.09210000      -0.50440000        1 
H      -0.30020000       3.24880000      -0.94300000        1 
H      -0.86490000      -1.47850000      -0.02690000        1 
