22
Properties=species:S:1:pos:R:3:Z:I:1 pbc="F F F"
O      -2.32520000      -0.29070000      -1.73380000        8 
O      -3.85280000       1.68830000       0.21690000        8 
C      -0.69970000       0.34540000      -0.06510000        6 
C       0.62210000      -0.05900000       0.62980000        6 
C       1.83960000       0.02270000      -0.30510000        6 
C      -1.15200000      -0.71070000      -1.09230000        6 
C      -1.79380000       0.56340000       0.99110000        6 
C       3.13790000      -0.21940000       0.46020000        6 
H      -0.54690000       1.31240000      -0.59390000        1 
H       0.80150000       0.62820000       1.48670000        1 
H       0.53420000      -1.08970000       1.03960000        1 
H       1.88610000       1.02750000      -0.77840000        1 
H       1.76310000      -0.74270000      -1.10500000        1 
H      -1.33000000      -1.68370000      -0.58040000        1 
H      -0.36360000      -0.85590000      -1.86110000        1 
H      -2.86210000       0.95990000       0.44690000        1 
H      -1.47920000       1.34310000       1.71730000        1 
H      -1.99850000      -0.37900000       1.54360000        1 
H       3.99770000      -0.16950000      -0.24080000        1 
H       3.12410000      -1.22370000       0.93480000        1 
H       3.27520000       0.55550000       1.24430000        1 
H      -2.57770000      -1.02230000      -2.35530000        1 
