22
Properties=species:S:1:pos:R:3:Z:I:1 pbc="F F F"
O      -1.65490000       0.03700000       1.68450000        8 
O       1.26020000      -0.13380000       2.82490000        8 
C      -0.70690000       0.24810000      -0.55050000        6 
C       0.24670000      -0.94980000      -0.31360000        6 
C       1.55880000      -0.60450000       0.41340000        6 
C      -1.13310000       0.95110000       0.75600000        6 
C      -1.93920000      -0.21370000      -1.34120000        6 
C       2.42060000       0.40110000      -0.34820000        6 
H      -0.18750000       0.99790000      -1.18540000        1 
H      -0.28080000      -1.73020000       0.27710000        1 
H       0.50340000      -1.40810000      -1.29440000        1 
H       1.33220000      -0.18380000       1.55120000        1 
H       2.14380000      -1.54260000       0.52930000        1 
H      -1.87300000       1.75570000       0.53690000        1 
H      -0.25730000       1.45860000       1.21010000        1 
H      -2.61950000       0.64360000      -1.53240000        1 
H      -2.49610000      -0.99830000      -0.78590000        1 
H      -1.62870000      -0.62890000      -2.32380000        1 
H       3.41390000       0.47920000       0.14150000        1 
H       2.56770000       0.07180000      -1.39880000        1 
H       1.95180000       1.40650000      -0.33430000        1 
H      -2.62220000      -0.05720000       1.48350000        1 
