22
Properties=species:S:1:pos:R:3:Z:I:1 pbc="F F F"
O      -1.72910000       0.44150000       2.00040000        8 
C      -0.97600000      -0.22320000      -0.20210000        6 
C       0.48950000      -0.40310000       0.25720000        6 
C       1.47830000      -0.45060000      -0.91810000        6 
C      -1.94610000      -0.47870000       0.96510000        6 
C      -1.22060000       1.16850000      -0.80570000        6 
C       2.89040000      -0.77250000      -0.43640000        6 
H      -1.19900000      -0.98180000      -0.98530000        1 
H       0.77510000       0.42050000       0.94830000        1 
H       0.57240000      -1.35960000       0.81980000        1 
H       1.16260000      -1.22900000      -1.64630000        1 
H       1.50320000       0.53090000      -1.43660000        1 
H      -1.80210000      -1.51440000       1.34750000        1 
H      -2.99530000      -0.39480000       0.60210000        1 
H      -0.84800000       2.11440000       0.03860000        1 
H      -2.29800000       1.30300000      -1.04120000        1 
H      -0.65810000       1.28810000      -1.75440000        1 
H       2.91400000      -1.76900000       0.05400000        1 
H       3.23750000      -0.00070000       0.28330000        1 
H       3.58450000      -0.78790000      -1.30300000        1 
H      -2.38390000       0.21580000       2.71110000        1 
H      -0.55140000       2.88240000       0.50170000        1 
