31
Properties=species:S:1:pos:R:3:Z:I:1 pbc="F F F"
C       0.49440000       0.89020000      -0.25640000        6 
C       1.33580000      -0.29170000       0.26720000        6 
C       2.44090000       0.14970000       1.23940000        6 
C       1.30120000       1.80280000      -1.18730000        6 
C       3.15440000      -1.05600000       1.84480000        6 
C      -3.02730000      -0.10520000      -1.60650000        6 
C      -2.43620000       1.31310000       0.47840000        6 
C      -1.06840000      -2.15540000      -0.22880000        6 
C      -1.98710000       0.51830000      -0.71970000        6 
C      -0.68730000       0.34340000      -1.02430000        6 
H       0.15930000       1.49730000       0.61060000        1 
H       3.19370000       0.76820000       0.70680000        1 
H       2.00130000       0.75520000       2.06150000        1 
H       1.78890000      -0.84340000      -0.58660000        1 
H       0.66020000      -0.99530000       0.80400000        1 
H       3.61670000      -1.67240000       1.04460000        1 
H       3.95410000      -0.70830000       2.53230000        1 
H       2.43830000      -1.67980000       2.42120000        1 
H       1.74830000       1.22060000      -2.02190000        1 
H       2.11030000       2.31680000      -0.62870000        1 
H       0.64190000       2.58900000      -1.61440000        1 
H      -3.68290000       0.68780000      -2.02350000        1 
H      -2.56710000      -0.66280000      -2.45140000        1 
H      -3.64520000      -0.81160000      -1.01350000        1 
H      -2.08130000       2.36190000       0.39270000        1 
H      -3.54450000       1.32790000       0.54850000        1 
H      -2.03670000       0.85610000       1.40830000        1 
H      -1.08050000      -0.92010000      -0.72300000        1 
H      -0.25820000      -2.24480000       0.52370000        1 
H      -2.04480000      -2.37110000       0.25170000        1 
H      -0.89210000      -2.88040000      -1.04990000        1 
