34
Properties=species:S:1:pos:R:3:Z:I:1 pbc="F F F"
O      -1.69740000       0.63350000      -0.07200000        8 
O       0.66420000      -1.99430000       2.29100000        8 
O       0.13290000      -3.12210000       1.86800000        8 
C      -2.99920000       0.27890000       0.34210000        6 
C      -0.99500000      -0.55750000      -0.35660000        6 
C      -3.19460000      -1.21880000       0.15190000        6 
C      -1.79140000      -1.73520000       0.18200000        6 
C       2.62070000       0.67920000       0.38090000        6 
C       3.46250000       1.88700000      -0.05870000        6 
C       1.25570000       0.62650000      -0.31680000        6 
C      -4.03250000       1.09420000      -0.43370000        6 
C       3.96590000       1.76440000      -1.49670000        6 
C       0.40680000      -0.50870000       0.26160000        6 
H      -3.09740000       0.52120000       1.42390000        1 
H      -3.81350000      -1.66140000       0.96270000        1 
H      -3.65180000      -1.44850000      -0.83720000        1 
H      -0.90510000      -0.65920000      -1.46190000        1 
H      -1.67090000      -2.64110000      -0.45140000        1 
H      -1.50560000      -1.96810000       1.23300000        1 
H       3.18250000      -0.26110000       0.18710000        1 
H       2.45800000       0.75470000       1.47870000        1 
H       2.87490000       2.82420000       0.05180000        1 
H       4.34460000       1.96290000       0.61340000        1 
H       0.73040000       1.59440000      -0.16610000        1 
H       1.39170000       0.45670000      -1.40620000        1 
H      -5.05880000       0.81550000      -0.11280000        1 
H      -3.88080000       2.17650000      -0.23600000        1 
H      -3.92890000       0.91420000      -1.52520000        1 
H       4.51270000       0.80780000      -1.63720000        1 
H       3.12160000       1.81750000      -2.21470000        1 
H       4.65950000       2.60300000      -1.71710000        1 
H       0.92310000      -1.48120000       0.10080000        1 
H       0.60780000      -1.27410000       1.36720000        1 
H       0.90740000      -3.68090000       1.60400000        1 
