27
Properties=species:S:1:pos:R:3:Z:I:1 pbc="F F F"
O      -0.94430000       2.07080000      -0.62840000        8 
O      -1.95070000       2.53710000      -1.33770000        8 
C      -2.02830000      -0.79700000       0.34600000        6 
C       2.71140000       0.63080000      -0.56330000        6 
C       1.35960000       0.30000000      -1.21050000        6 
C      -1.67450000      -2.05630000       1.14530000        6 
C      -2.39880000       0.36450000       1.27510000        6 
C       3.40300000      -0.61050000       0.00070000        6 
C       0.31610000      -0.06850000      -0.19310000        6 
C      -0.91340000      -0.41330000      -0.59570000        6 
H      -2.91770000      -1.02960000      -0.27860000        1 
H       2.57480000       1.38290000       0.24440000        1 
H       3.37370000       1.08070000      -1.33440000        1 
H       1.48550000      -0.53200000      -1.93780000        1 
H       1.00740000       1.19330000      -1.77080000        1 
H       2.79390000      -1.06790000       0.80820000        1 
H       4.38880000      -0.32450000       0.42390000        1 
H       3.56710000      -1.35950000      -0.80300000        1 
H      -0.81480000      -1.86950000       1.82370000        1 
H      -2.54540000      -2.37500000       1.75680000        1 
H      -1.41340000      -2.88630000       0.45430000        1 
H      -1.55810000       0.61300000       1.95750000        1 
H      -2.65460000       1.26520000       0.67690000        1 
H      -3.28420000       0.09250000       1.88840000        1 
H       0.55560000      -0.05000000       0.86640000        1 
H      -0.90900000       0.98350000      -0.86770000        1 
H      -1.52980000       2.92550000      -2.14650000        1 
