25
Properties=species:S:1:pos:R:3:Z:I:1 pbc="F F F"
O       0.37520000       2.54620000      -0.69920000        8 
C       0.66590000       0.33270000       0.27860000        6 
C      -0.84140000       0.20910000       0.60040000        6 
C      -1.64170000      -0.43530000      -0.54140000        6 
C       0.95360000       1.28350000      -0.90250000        6 
C       1.43960000       0.77260000       1.52870000        6 
C      -3.08680000      -0.69310000      -0.12330000        6 
C       1.85050000      -1.89510000      -0.54990000        6 
H       1.09210000      -0.79490000      -0.03360000        1 
H      -0.95670000      -0.42480000       1.50760000        1 
H      -1.26620000       1.20980000       0.83520000        1 
H      -1.17520000      -1.40150000      -0.83220000        1 
H      -1.65100000       0.23560000      -1.42610000        1 
H       0.54360000       0.85110000      -1.83800000        1 
H       2.05300000       1.37450000      -1.06240000        1 
H       2.52390000       0.85430000       1.30190000        1 
H       1.07200000       1.75380000       1.89770000        1 
H       1.31620000       0.02050000       2.33670000        1 
H      -3.64430000      -1.14440000      -0.97090000        1 
H      -3.12120000      -1.39510000       0.73700000        1 
H      -3.58190000       0.26010000       0.16050000        1 
H       1.69140000      -2.72330000       0.17090000        1 
H       2.93780000      -1.70490000      -0.66060000        1 
H       1.42180000      -2.17420000      -1.53430000        1 
H       1.02970000       3.08270000      -0.18090000        1 
