25
Properties=species:S:1:pos:R:3:Z:I:1 pbc="F F F"
O       2.25040000       1.98400000      -1.17950000        8 
C       1.42080000      -0.15930000      -0.41060000        6 
C       0.10010000       0.41980000       0.15880000        6 
C      -1.10800000      -0.53180000       0.10150000        6 
C       2.54390000       0.89390000      -0.34520000        6 
C       1.85880000      -1.42640000       0.34180000        6 
C      -1.48390000      -0.93860000      -1.32200000        6 
C      -3.06680000       0.76370000       1.37740000        6 
H       1.27660000      -0.42360000      -1.48050000        1 
H      -0.17030000       1.34300000      -0.39780000        1 
H       0.25700000       0.71430000       1.21950000        1 
H      -2.10450000       0.07240000       0.61300000        1 
H      -0.92880000      -1.43670000       0.71870000        1 
H       2.71020000       1.22330000       0.70790000        1 
H       3.49480000       0.44330000      -0.70230000        1 
H       1.92300000      -1.23170000       1.43390000        1 
H       2.85280000      -1.76730000      -0.01860000        1 
H       1.14630000      -2.25680000       0.15920000        1 
H      -2.45250000      -1.48040000      -1.30390000        1 
H      -0.71760000      -1.61640000      -1.75170000        1 
H      -1.59270000      -0.04090000      -1.96670000        1 
H      -3.78890000       1.14960000       0.62880000        1 
H      -2.70080000       1.60230000       2.00470000        1 
H      -3.56780000       0.01170000       2.02110000        1 
H       1.84790000       2.68850000      -0.60760000        1 
