22
Properties=species:S:1:pos:R:3:Z:I:1 pbc="F F F"
O      -2.19740000      -1.43510000       0.62580000        8 
C      -0.96260000       0.49280000      -0.16050000        6 
C       0.35710000      -0.30070000      -0.29510000        6 
C       1.58890000       0.60910000      -0.40900000        6 
C      -2.17470000      -0.43510000      -0.35670000        6 
C      -1.05830000       1.22240000       1.18920000        6 
C       2.85020000      -0.20800000      -0.67270000        6 
H      -1.00160000       1.25750000      -0.96820000        1 
H       0.50110000      -1.08860000       0.71980000        1 
H       0.30450000      -0.93190000      -1.21010000        1 
H       1.73270000       1.17500000       0.53500000        1 
H       1.44940000       1.33300000      -1.24110000        1 
H      -3.11270000       0.16250000      -0.30550000        1 
H      -2.12550000      -0.90210000      -1.36620000        1 
H      -2.05080000       1.71070000       1.29270000        1 
H      -0.29040000       2.02000000       1.25820000        1 
H      -0.92030000       0.51340000       2.03330000        1 
H       3.72640000       0.47110000      -0.73670000        1 
H       3.02090000      -0.93130000       0.15300000        1 
H       2.75970000      -0.76050000      -1.63210000        1 
H      -2.99800000      -1.98970000       0.43590000        1 
H       0.60140000      -1.98440000       1.11120000        1 
