23
Properties=species:S:1:pos:R:3:Z:I:1 pbc="F F F"
O      -2.74350000      -0.97620000       0.77450000        8 
O      -2.46660000       1.81590000      -0.96060000        8 
O      -2.15390000       3.09360000      -0.92020000        8 
C      -0.79690000       0.29080000       0.15010000        6 
C       0.49960000       0.26720000      -0.69240000        6 
C       1.63040000      -0.59120000      -0.09900000        6 
C      -1.44060000      -1.10030000       0.27490000        6 
C      -0.58300000       0.93420000       1.52790000        6 
C       2.86780000      -0.55670000      -0.99170000        6 
H      -1.64390000       1.05330000      -0.50080000        1 
H       0.25290000      -0.10930000      -1.70940000        1 
H       0.86120000       1.31190000      -0.81410000        1 
H       1.30060000      -1.64680000      -0.00150000        1 
H       1.91440000      -0.21210000       0.90500000        1 
H      -1.48010000      -1.58170000      -0.72780000        1 
H      -0.84130000      -1.74400000       0.95670000        1 
H      -1.56390000       1.11410000       2.01600000        1 
H       0.02080000       0.27780000       2.18890000        1 
H      -0.07010000       1.91330000       1.41990000        1 
H       2.62800000      -0.95680000      -1.99990000        1 
H       3.24440000       0.48390000      -1.08970000        1 
H       3.66790000      -1.18250000      -0.54300000        1 
H      -3.10450000      -1.89870000       0.83600000        1 
