25
Properties=species:S:1:pos:R:3:Z:I:1 pbc="F F F"
O       2.04170000      -1.68350000       1.50640000        8 
C       0.02550000      -0.88640000       0.41260000        6 
C      -0.74330000       0.40850000       0.06230000        6 
C      -2.19450000       0.14340000      -0.36900000        6 
C       1.37160000      -0.52980000       1.07310000        6 
C       0.25840000      -1.76050000      -0.83140000        6 
C      -2.96380000       1.45000000      -0.54480000        6 
C       2.91400000       1.19500000      -0.17610000        6 
H      -0.57410000      -1.46910000       1.14710000        1 
H      -0.76490000       1.06530000       0.96030000        1 
H      -0.20970000       0.95860000      -0.74430000        1 
H      -2.70990000      -0.47490000       0.39770000        1 
H      -2.21290000      -0.40180000      -1.33590000        1 
H       2.10260000       0.07450000       0.24270000        1 
H       1.21100000       0.15420000       1.93790000        1 
H      -0.70520000      -2.12950000      -1.23790000        1 
H       0.79030000      -1.18700000      -1.62060000        1 
H       0.86400000      -2.65430000      -0.57190000        1 
H      -3.00480000       2.00690000       0.41550000        1 
H      -2.47630000       2.08350000      -1.31620000        1 
H      -4.00220000       1.22930000      -0.87050000        1 
H       3.96990000       0.90110000      -0.00410000        1 
H       2.75570000       1.38980000      -1.25670000        1 
H       2.68720000       2.11410000       0.40240000        1 
H       1.56950000      -1.99720000       2.32140000        1 
