25
Properties=species:S:1:pos:R:3:Z:I:1 pbc="F F F"
O      -2.45370000      -0.36710000       1.20200000        8 
C      -0.89680000      -0.06380000      -0.62670000        6 
C       0.33200000       0.03440000       0.30790000        6 
C       1.67480000      -0.23100000      -0.40360000        6 
C      -2.16280000       0.43700000       0.09080000        6 
C      -1.10860000      -1.48810000      -1.16220000        6 
C       2.22270000      -1.62870000      -0.11490000        6 
C       0.78540000       2.53700000       1.06360000        6 
H      -0.72930000       0.60840000      -1.49760000        1 
H       0.37690000       1.21910000       0.77090000        1 
H       0.20620000      -0.64140000       1.18290000        1 
H       2.42130000       0.50750000      -0.03940000        1 
H       1.58420000      -0.08580000      -1.50190000        1 
H      -3.02160000       0.42190000      -0.61770000        1 
H      -2.01330000       1.49040000       0.41850000        1 
H      -0.28360000      -1.76900000      -1.84890000        1 
H      -1.15580000      -2.22080000      -0.32840000        1 
H      -2.05410000      -1.54560000      -1.74250000        1 
H       3.18000000      -1.77100000      -0.65910000        1 
H       1.51080000      -2.41240000      -0.44360000        1 
H       2.41510000      -1.74770000       0.97270000        1 
H       1.61200000       2.94570000       0.44670000        1 
H      -0.16590000       3.03440000       0.78350000        1 
H       0.99800000       2.72280000       2.13650000        1 
H      -3.27410000       0.01380000       1.61030000        1 
