28
Properties=species:S:1:pos:R:3:Z:I:1 pbc="F F F"
C       1.51640000       0.15390000      -0.29690000        6 
C       2.80420000      -0.18410000      -1.05680000        6 
C       0.27970000      -0.24020000      -1.10740000        6 
C       4.03900000       0.20810000      -0.25080000        6 
C      -3.09030000      -0.13250000       0.82430000        6 
C      -1.83020000      -2.20520000      -0.13870000        6 
C      -1.52180000       2.19950000       1.25150000        6 
C      -1.91830000      -0.71580000       0.08530000        6 
C      -0.96900000       0.13260000      -0.35070000        6 
H       2.82070000       0.35890000      -2.02700000        1 
H       2.84230000      -1.27600000      -1.26360000        1 
H       1.48810000       1.24680000      -0.08840000        1 
H       1.50700000      -0.39170000       0.67300000        1 
H       0.32140000      -1.32440000      -1.33930000        1 
H       0.27500000       0.31250000      -2.07100000        1 
H       4.03890000       1.30110000      -0.05190000        1 
H       4.95440000      -0.04820000      -0.82460000        1 
H       4.05980000      -0.34070000       0.71490000        1 
H      -3.80900000      -0.91800000       1.13810000        1 
H      -3.62600000       0.58800000       0.17030000        1 
H      -2.73510000       0.39770000       1.73350000        1 
H      -2.69760000      -2.73500000       0.30680000        1 
H      -0.90680000      -2.60390000       0.33210000        1 
H      -1.81820000      -2.42360000      -1.22730000        1 
H      -1.14510000       1.25000000       0.39890000        1 
H      -1.93360000       3.06120000       0.68700000        1 
H      -0.64590000       2.53150000       1.84600000        1 
H      -2.30000000       1.79760000       1.93250000        1 
