29
Properties=species:S:1:pos:R:3:Z:I:1 pbc="F F F"
O      -2.82840000       2.58800000      -0.02560000        8 
O      -2.16720000       3.22270000       0.91960000        8 
C       1.74680000       0.68630000      -0.22590000        6 
C      -0.64200000      -0.32930000      -0.11030000        6 
C       0.55280000       0.28250000       0.67390000        6 
C      -0.65760000      -1.87330000       0.00710000        6 
C       2.39670000      -0.52300000      -0.91300000        6 
C       2.79780000       1.44020000       0.60030000        6 
C      -1.59870000      -2.53200000      -1.00190000        6 
C      -1.95870000       0.26640000       0.40430000        6 
H       1.38100000       1.38080000      -1.01470000        1 
H      -0.55830000      -0.04530000      -1.18270000        1 
H       0.89820000      -0.41410000       1.47050000        1 
H       0.21460000       1.20290000       1.20200000        1 
H      -0.95390000      -2.17640000       1.03530000        1 
H       0.35970000      -2.27930000      -0.16900000        1 
H      -2.65480000      -2.26800000      -0.78760000        1 
H      -1.34020000      -2.21840000      -2.03560000        1 
H      -1.49870000      -3.63590000      -0.93370000        1 
H       1.69350000      -0.98350000      -1.63730000        1 
H       3.29440000      -0.20430000      -1.48470000        1 
H       2.70420000      -1.28240000      -0.16250000        1 
H       3.20120000       0.79070000       1.40690000        1 
H       2.34930000       2.34670000       1.06000000        1 
H       3.63690000       1.76820000      -0.04980000        1 
H      -2.81040000       0.01620000      -0.26170000        1 
H      -2.17160000      -0.05700000       1.44590000        1 
H      -2.55920000       1.48330000       0.12250000        1 
H      -2.82750000       3.34720000       1.64780000        1 
