7
Properties=species:S:1:pos:R:3:Z:I:1 pbc="F F F"
O      -1.07500000      -0.76360000       0.11710000        8 
O      -1.89600000       0.19110000      -0.26770000        8 
C       1.31650000      -0.08860000      -0.12050000        6 
H      -0.06960000      -0.39910000      -0.16200000        1 
H      -2.07300000       0.71690000       0.55350000        1 
H       2.12800000      -0.47780000       0.52810000        1 
H       1.66910000       0.82110000      -0.64850000        1 
