29
Properties=species:S:1:pos:R:3:Z:I:1 pbc="F F F"
O       4.04800000       2.06610000      -0.74070000        8 
O       4.62810000       2.77000000       0.20890000        8 
C      -1.56430000       0.36150000       0.18550000        6 
C      -0.68950000      -0.35850000      -0.85040000        6 
C      -3.77960000       1.45470000      -0.68570000        6 
C       0.66200000      -2.02110000       1.30990000        6 
C      -3.02850000       0.25450000      -0.17450000        6 
C       1.38610000      -1.00310000       0.46300000        6 
C       0.77030000      -0.26730000      -0.49150000        6 
C       2.82870000      -0.82170000       0.76990000        6 
C      -3.67420000      -0.91200000      -0.02660000        6 
C       3.73060000      -0.34270000      -0.08670000        6 
H      -1.25740000       1.42910000       0.22980000        1 
H      -1.40780000      -0.05890000       1.20160000        1 
H      -0.99280000      -1.41820000      -0.98600000        1 
H      -0.83630000       0.14050000      -1.83340000        1 
H      -3.11800000       2.34190000      -0.77040000        1 
H      -4.19670000       1.23550000      -1.69140000        1 
H      -4.61150000       1.70090000       0.00770000        1 
H      -0.39340000      -2.18440000       1.02250000        1 
H       0.68250000      -1.69710000       2.37160000        1 
H       1.18090000      -2.99940000       1.22820000        1 
H       1.33370000       0.47050000      -1.04640000        1 
H       3.19230000      -1.15410000       1.73390000        1 
H      -4.72710000      -1.00060000      -0.27740000        1 
H      -3.15850000      -1.79030000       0.35020000        1 
H       3.49000000      -0.03060000      -1.09300000        1 
H       3.91020000       1.07840000      -0.30790000        1 
H       5.59210000       2.75660000      -0.02070000        1 
