29
Properties=species:S:1:pos:R:3:Z:I:1 pbc="F F F"
O       4.16840000      -0.14710000       1.16320000        8 
O       3.15630000      -0.86070000       1.61050000        8 
C       1.29920000      -0.30600000      -0.71170000        6 
C      -0.08770000       0.19190000      -0.28660000        6 
C       1.71900000       1.36030000      -2.67900000        6 
C      -2.80450000      -1.89620000       1.55440000        6 
C      -2.12250000      -0.72760000       0.88400000        6 
C       2.11360000       0.80090000      -1.33660000        6 
C      -0.87350000      -0.89500000       0.40260000        6 
C      -2.83230000       0.57920000       0.76540000        6 
C      -4.06570000       0.79060000       1.22720000        6 
C       3.20400000       1.25210000      -0.70440000        6 
H       1.82620000      -0.71370000       0.18100000        1 
H       1.19290000      -1.13420000      -1.44580000        1 
H       0.03460000       1.05070000       0.40940000        1 
H      -0.65090000       0.52400000      -1.18500000        1 
H       1.65760000       0.53650000      -3.42050000        1 
H       0.72960000       1.85660000      -2.60620000        1 
H       2.45390000       2.10770000      -3.04800000        1 
H      -3.05270000      -1.63180000       2.60380000        1 
H      -2.16770000      -2.80660000       1.57550000        1 
H      -3.73740000      -2.14780000       1.00760000        1 
H      -0.39700000      -1.86370000       0.51020000        1 
H      -2.34410000       1.41620000       0.28390000        1 
H      -4.52340000       1.76420000       1.10820000        1 
H      -4.63790000       0.01910000       1.72350000        1 
H       3.82760000       2.03700000      -1.12130000        1 
H       3.72600000       0.54360000       0.44980000        1 
H       3.18830000      -1.70030000       1.08490000        1 
