29
Properties=species:S:1:pos:R:3:Z:I:1 pbc="F F F"
O      -2.64930000       1.57350000       1.44690000        8 
O      -2.15290000       2.74160000       1.09680000        8 
C      -0.58130000      -1.11540000       0.01630000        6 
C       1.24320000       0.76530000      -0.35020000        6 
C       0.63320000      -0.32160000       0.58760000        6 
C      -0.25450000      -1.77240000      -1.33980000        6 
C      -0.94910000      -2.22560000       1.02240000        6 
C       2.52020000       0.26020000      -1.04030000        6 
C       1.55890000       2.04660000       0.43400000        6 
C      -1.80280000      -0.19010000      -0.13060000        6 
H       0.52490000       1.04840000      -1.14560000        1 
H       0.30010000       0.14980000       1.54010000        1 
H       1.43140000      -1.03790000       0.88670000        1 
H       0.64350000      -2.42080000      -1.25140000        1 
H      -1.10370000      -2.40280000      -1.68190000        1 
H      -0.07090000      -1.00990000      -2.12490000        1 
H      -1.82190000      -2.81370000       0.66410000        1 
H      -0.09770000      -2.92630000       1.16380000        1 
H      -1.20950000      -1.78850000       2.01100000        1 
H       2.31540000      -0.65560000      -1.63010000        1 
H       2.90990000       1.03290000      -1.73710000        1 
H       3.30690000       0.02990000      -0.28990000        1 
H       1.99070000       2.81670000      -0.24060000        1 
H       2.28290000       1.83720000       1.25090000        1 
H       0.62800000       2.46250000       0.87550000        1 
H      -1.64410000       0.60630000      -0.88550000        1 
H      -2.71160000      -0.76380000      -0.41450000        1 
H      -2.33360000       0.85950000       0.60710000        1 
H      -2.90620000       3.21370000       0.65920000        1 
