41
Properties=species:S:1:pos:R:3:Z:I:1 pbc="F F F"
O       0.78660000      -1.14870000      -0.58210000        8 
O      -1.74120000      -0.03430000      -0.32780000        8 
O      -0.69320000      -1.45730000       2.73850000        8 
O       2.98190000       2.64500000       0.35690000        8 
O       3.82840000       2.71590000       1.36270000        8 
C      -2.93500000       0.74200000      -0.24100000        6 
C       2.18920000      -1.03480000      -0.81020000        6 
C       0.35160000      -0.68220000       0.69020000        6 
C      -0.67530000       0.43880000       0.47920000        6 
C      -0.26420000      -1.86010000       1.46530000        6 
C      -3.67380000       0.46780000       1.08780000        6 
C      -2.68960000       2.26070000      -0.42430000        6 
C      -3.83820000       0.26840000      -1.39250000        6 
C       2.43830000      -1.46350000      -2.26480000        6 
C       2.98670000      -1.97880000       0.11600000        6 
C       2.67830000       0.41770000      -0.64750000        6 
H       1.16940000      -0.25870000       1.31660000        1 
H       0.48130000      -2.68150000       1.55940000        1 
H      -1.13360000      -2.26930000       0.90790000        1 
H      -0.16540000       1.27830000      -0.04090000        1 
H      -1.00890000       0.80240000       1.47340000        1 
H       1.86650000      -0.81330000      -2.96180000        1 
H       2.10320000      -2.51180000      -2.42100000        1 
H       3.51740000      -1.39510000      -2.52390000        1 
H       2.93730000      -1.65370000       1.17550000        1 
H       2.58500000      -3.01240000       0.04700000        1 
H       4.05930000      -1.99870000      -0.17500000        1 
H      -4.70110000       0.89150000       1.05990000        1 
H      -3.15620000       0.93010000       1.95250000        1 
H      -3.74770000      -0.62650000       1.26610000        1 
H      -2.09170000       2.44560000      -1.34230000        1 
H      -3.65450000       2.80480000      -0.51590000        1 
H      -2.15030000       2.69280000       0.44480000        1 
H      -4.80740000       0.81330000      -1.39610000        1 
H      -3.33620000       0.43710000      -2.36970000        1 
H      -4.04690000      -0.81940000      -1.29730000        1 
H       2.10640000       1.10680000      -1.30510000        1 
H       3.76500000       0.50790000      -0.86260000        1 
H       0.12350000      -1.35060000       3.29280000        1 
H       2.84330000       1.52190000       0.17170000        1 
H       4.71170000       2.86170000       0.93780000        1 
