41
Properties=species:S:1:pos:R:3:Z:I:1 pbc="F F F"
O       2.26080000      -0.69890000      -0.28180000        8 
O      -1.36920000      -0.54670000      -0.06090000        8 
O      -0.25500000      -2.13260000       1.90810000        8 
O      -4.76710000       1.17770000       1.55200000        8 
O      -4.08230000       1.23640000       2.67490000        8 
C       3.09390000       0.39970000       0.08700000        6 
C      -2.40720000      -0.03930000      -0.89750000        6 
C       0.99950000      -0.75450000       0.37240000        6 
C      -0.10290000      -0.64100000      -0.69130000        6 
C       0.90980000      -2.08750000       1.13050000        6 
C       4.37990000       0.25620000      -0.74530000        6 
C       3.49240000       0.34850000       1.58120000        6 
C       2.45290000       1.76250000      -0.26940000        6 
C      -2.48130000      -0.73560000      -2.27880000        6 
C      -2.28100000       1.48950000      -1.06110000        6 
C      -3.72020000      -0.31670000      -0.15650000        6 
H       0.83630000       0.05890000       1.11000000        1 
H       0.92170000      -2.93710000       0.41090000        1 
H       1.79540000      -2.18420000       1.79700000        1 
H       0.12070000       0.25080000      -1.31160000        1 
H      -0.06840000      -1.54000000      -1.34530000        1 
H       5.09740000       1.07650000      -0.52500000        1 
H       4.87640000      -0.71360000      -0.52470000        1 
H       4.14190000       0.27960000      -1.83080000        1 
H       3.87790000      -0.66060000       1.84070000        1 
H       2.64040000       0.58200000       2.25100000        1 
H       4.28780000       1.09400000       1.79830000        1 
H       3.18750000       2.58540000      -0.13290000        1 
H       2.11920000       1.76450000      -1.32900000        1 
H       1.58080000       1.99730000       0.37360000        1 
H      -2.49950000      -1.83940000      -2.15260000        1 
H      -3.40000000      -0.42780000      -2.82370000        1 
H      -1.61430000      -0.46270000      -2.91680000        1 
H      -1.42740000       1.76650000      -1.71260000        1 
H      -3.19680000       1.91130000      -1.52940000        1 
H      -2.13830000       1.96980000      -0.06930000        1 
H      -4.60340000       0.05210000      -0.72250000        1 
H      -3.83880000      -1.40230000       0.05000000        1 
H      -0.25410000      -3.01900000       2.35450000        1 
H      -4.10670000       0.56820000       0.83990000        1 
H      -4.45870000       0.51220000       3.23690000        1 
