29
Properties=species:S:1:pos:R:3:Z:I:1 pbc="F F F"
O       3.96660000       0.94570000      -1.05890000        8 
O       4.12730000       0.95970000       0.24780000        8 
C      -1.50950000       0.41050000       0.27350000        6 
C       0.69680000      -0.86190000      -0.43790000        6 
C       0.05090000       0.37740000       0.25240000        6 
C      -2.09410000      -0.85470000       0.93430000        6 
C      -2.07610000       0.55920000      -1.15620000        6 
C      -1.95550000       1.63790000       1.09770000        6 
C       1.19610000      -1.88150000       0.59600000        6 
C       1.86990000      -0.43150000      -1.32280000        6 
H      -0.03120000      -1.37780000      -1.09550000        1 
H       0.39750000       1.31020000      -0.24780000        1 
H       0.43150000       0.45830000       1.29570000        1 
H      -3.19910000      -0.77300000       1.02340000        1 
H      -1.67420000      -0.99140000       1.95390000        1 
H      -1.87620000      -1.76200000       0.33350000        1 
H      -1.62970000       1.44080000      -1.66470000        1 
H      -1.87670000      -0.33890000      -1.77500000        1 
H      -3.17850000       0.69930000      -1.12560000        1 
H      -1.58290000       1.56690000       2.14270000        1 
H      -1.56100000       2.57610000       0.65060000        1 
H      -3.06420000       1.71140000       1.13230000        1 
H       1.60310000      -2.77920000       0.08320000        1 
H       0.36840000      -2.21320000       1.25470000        1 
H       1.99700000      -1.43890000       1.22690000        1 
H       1.52120000       0.26160000      -2.11820000        1 
H       2.34050000      -1.31310000      -1.80870000        1 
H       3.03720000       0.29650000      -1.23090000        1 
H       3.70470000       1.80570000       0.54380000        1 
