31
Properties=species:S:1:pos:R:3:Z:I:1 pbc="F F F"
O      -3.15770000       1.92690000      -0.42040000        8 
O      -2.63840000       3.09640000      -0.72990000        8 
O       0.81920000      -2.63610000      -0.16960000        8 
C       2.02280000       0.49350000      -0.15710000        6 
C      -1.72990000      -1.18600000       0.26110000        6 
C       2.02600000      -0.79570000       0.68980000        6 
C      -0.50860000      -1.23830000       1.20330000        6 
C       3.09960000       1.46310000       0.34520000        6 
C       2.25530000       0.18120000      -1.64300000        6 
C      -3.01770000      -1.04470000       1.08070000        6 
C       0.77230000      -1.61210000       0.49580000        6 
C      -1.62080000      -0.02060000      -0.72470000        6 
H       1.04020000       1.00270000      -0.04910000        1 
H      -1.79540000      -2.13620000      -0.31420000        1 
H       2.91910000      -1.40870000       0.43450000        1 
H       2.10880000      -0.54530000       1.77010000        1 
H      -0.68660000      -2.00650000       1.98700000        1 
H      -0.39100000      -0.26050000       1.72070000        1 
H       3.09180000       2.39390000      -0.26150000        1 
H       4.10740000       0.99930000       0.27890000        1 
H       2.90170000       1.74180000       1.40230000        1 
H       1.49550000      -0.53360000      -2.01980000        1 
H       3.26200000      -0.26370000      -1.79700000        1 
H       2.18030000       1.11220000      -2.24450000        1 
H      -3.00710000      -0.10060000       1.66730000        1 
H      -3.90320000      -1.04040000       0.40950000        1 
H      -3.12460000      -1.90130000       1.78010000        1 
H      -2.54140000       0.05940000      -1.34150000        1 
H      -0.76460000      -0.17150000      -1.41110000        1 
H      -2.30230000       1.17880000      -0.57370000        1 
H      -2.91280000       3.25240000      -1.66920000        1 
