28
Properties=species:S:1:pos:R:3:Z:I:1 pbc="F F F"
O       4.01410000       0.74600000      -0.84630000        8 
O       4.29200000       1.60170000      -1.80750000        8 
O      -3.24490000      -0.33550000       1.42010000        8 
C      -1.40900000       0.19680000       0.01140000        6 
C       0.79890000      -1.16690000      -0.25550000        6 
C      -0.42540000      -0.82680000       0.62840000        6 
C      -2.05270000      -0.31640000      -1.28450000        6 
C       1.65940000      -2.23600000       0.42400000        6 
C      -2.63560000       1.93790000       1.52490000        6 
C      -2.48750000       0.53540000       1.01620000        6 
C       1.66620000       0.06080000      -0.54500000        6 
H      -0.85680000       1.13100000      -0.22720000        1 
H       0.45610000      -1.59210000      -1.22230000        1 
H      -0.06140000      -0.42800000       1.60220000        1 
H      -0.97890000      -1.76720000       0.84800000        1 
H      -1.29810000      -0.38480000      -2.09490000        1 
H      -2.51210000      -1.31620000      -1.12860000        1 
H      -2.84050000       0.38960000      -1.62540000        1 
H       2.03920000      -1.87190000       1.40320000        1 
H       2.52560000      -2.49720000      -0.22130000        1 
H       1.06390000      -3.15900000       0.59120000        1 
H      -2.84360000       2.62170000       0.67560000        1 
H      -1.69680000       2.25240000       2.02680000        1 
H      -3.47180000       2.00590000       2.25310000        1 
H       1.91540000       0.61160000       0.38740000        1 
H       1.18090000       0.73710000      -1.27910000        1 
H       2.88090000       0.58620000      -0.91760000        1 
H       4.32230000       2.48390000      -1.35730000        1 
