29
Properties=species:S:1:pos:R:3:Z:I:1 pbc="F F F"
O       0.77740000       2.43960000       0.42420000        8 
O      -0.33130000       3.11320000       0.64810000        8 
C      -1.11210000      -0.60830000      -0.09030000        6 
C      -2.21440000      -0.09050000      -1.04440000        6 
C       2.69610000       0.27990000      -0.05540000        6 
C       1.44550000      -0.58170000       0.14160000        6 
C      -1.54150000      -0.46460000       1.37920000        6 
C      -3.48720000      -0.93860000      -1.00980000        6 
C       3.94920000      -0.44800000       0.42270000        6 
C       0.19710000       0.17370000      -0.33120000        6 
H      -0.93620000      -1.68500000      -0.31150000        1 
H      -1.83360000      -0.11250000      -2.08910000        1 
H      -2.46880000       0.96460000      -0.80100000        1 
H       2.58970000       1.22810000       0.51570000        1 
H       2.81540000       0.52910000      -1.13260000        1 
H       1.54780000      -1.52400000      -0.44030000        1 
H       1.35350000      -0.83760000       1.21730000        1 
H      -4.02640000      -0.80370000      -0.04970000        1 
H      -4.16570000      -0.61820000      -1.82840000        1 
H      -3.24470000      -2.01290000      -1.15390000        1 
H      -2.43510000      -1.08670000       1.59000000        1 
H      -0.74340000      -0.81450000       2.06430000        1 
H      -1.77320000       0.59590000       1.61640000        1 
H       3.86930000      -0.68400000       1.50530000        1 
H       4.83780000       0.19900000       0.26530000        1 
H       4.09000000      -1.39010000      -0.14900000        1 
H       0.32150000       0.41880000      -1.40930000        1 
H       0.43550000       1.32020000       0.35030000        1 
H      -0.61200000       3.43850000      -0.24470000        1 
