29
Properties=species:S:1:pos:R:3:Z:I:1 pbc="F F F"
O       3.26280000       0.97760000       0.73330000        8 
O       2.65180000       2.09940000       1.05200000        8 
C       0.51280000      -0.58980000      -0.34020000        6 
C       0.08670000       0.70310000       0.40130000        6 
C      -1.32920000       1.21740000       0.07750000        6 
C      -2.43060000       0.20570000       0.42580000        6 
C       0.49210000      -0.39380000      -1.86520000        6 
C      -3.81600000       0.82890000       0.28030000        6 
C       2.28710000      -2.44220000      -0.21910000        6 
C       1.92740000      -0.99720000       0.12520000        6 
H      -0.19080000      -1.40640000      -0.07040000        1 
H       0.81220000       1.51290000       0.16550000        1 
H       0.14210000       0.52850000       1.49870000        1 
H      -1.40260000       1.51030000      -0.99090000        1 
H      -1.49180000       2.14220000       0.67380000        1 
H      -2.30310000      -0.14670000       1.47250000        1 
H      -2.37080000      -0.66980000      -0.25480000        1 
H       1.15070000       0.45120000      -2.15980000        1 
H       0.83000000      -1.31020000      -2.38920000        1 
H      -0.53880000      -0.19470000      -2.22150000        1 
H      -4.59150000       0.07190000       0.52240000        1 
H      -3.92910000       1.68710000       0.97650000        1 
H      -3.97370000       1.17850000      -0.76240000        1 
H       3.26970000      -2.69040000       0.23390000        1 
H       1.52440000      -3.14090000       0.18530000        1 
H       2.37510000      -2.57850000      -1.31540000        1 
H       2.02800000      -0.87250000       1.22580000        1 
H       2.39630000       0.22370000       0.49680000        1 
H       2.61890000       2.09460000       2.04230000        1 
