29
Properties=species:S:1:pos:R:3:Z:I:1 pbc="F F F"
O       3.46910000       2.80260000       1.06850000        8 
O       3.91480000       3.52670000       0.06310000        8 
C      -1.80590000      -0.58200000       0.72690000        6 
C      -0.96470000       0.15040000      -0.32370000        6 
C      -4.38970000      -0.15270000       0.68500000        6 
C       1.64370000      -0.89740000      -1.40040000        6 
C      -3.18310000      -0.90670000       0.19330000        6 
C       1.56620000       0.02540000      -0.20590000        6 
C       0.38900000       0.49760000       0.24500000        6 
C      -3.34170000      -1.88140000      -0.71470000        6 
C       3.97550000      -0.11200000       0.46270000        6 
C       2.78310000       0.47840000       0.50610000        6 
H      -1.47380000       1.09650000      -0.60790000        1 
H      -0.89580000      -0.47400000      -1.23680000        1 
H      -1.88920000       0.05480000       1.63460000        1 
H      -1.29660000      -1.52320000       1.03130000        1 
H      -4.89840000       0.33970000      -0.17070000        1 
H      -5.09770000      -0.85440000       1.17470000        1 
H      -4.10740000       0.63120000       1.41830000        1 
H       1.16180000      -0.41800000      -2.27840000        1 
H       2.68420000      -1.12080000      -1.70260000        1 
H       1.13130000      -1.85550000      -1.17080000        1 
H       0.38820000       1.17020000       1.09690000        1 
H      -4.32660000      -2.12600000      -1.10180000        1 
H      -2.49000000      -2.44830000      -1.07860000        1 
H       4.79490000       0.31720000       1.02250000        1 
H       4.15120000      -1.03040000      -0.07780000        1 
H       3.20590000       1.83590000       0.62100000        1 
H       4.90170000       3.45620000       0.12010000        1 
