30
Properties=species:S:1:pos:R:3:Z:I:1 pbc="F F F"
O      -0.01190000       0.38860000      -0.98010000        8 
O       1.52180000      -0.29100000       1.45640000        8 
O       2.79630000      -0.09360000       1.72060000        8 
C      -0.83830000      -0.03460000       0.08940000        6 
C      -1.61440000       1.18910000       0.61380000        6 
C      -1.80140000      -1.13140000      -0.41900000        6 
C      -0.67360000       2.28100000       1.12260000        6 
C      -2.58220000      -1.81450000       0.70480000        6 
C       1.38260000      -0.91810000      -2.43320000        6 
C       2.34340000       0.38290000      -0.49970000        6 
C       1.14500000      -0.41190000      -1.01360000        6 
H      -0.24660000      -0.43930000       0.94920000        1 
H      -2.27380000       0.89290000       1.45620000        1 
H      -2.25050000       1.60950000      -0.19560000        1 
H      -2.51290000      -0.70380000      -1.15870000        1 
H      -1.21170000      -1.91560000      -0.94030000        1 
H      -0.02300000       1.88420000       1.93090000        1 
H      -1.26990000       3.12460000       1.52960000        1 
H      -0.03870000       2.66660000       0.29700000        1 
H      -3.32300000      -1.12050000       1.15170000        1 
H      -3.13580000      -2.68410000       0.29200000        1 
H      -1.89120000      -2.18030000       1.49370000        1 
H       0.50220000      -1.50200000      -2.77340000        1 
H       1.53950000      -0.06630000      -3.12900000        1 
H       2.27310000      -1.58080000      -2.45640000        1 
H       3.25290000      -0.25390000      -0.50400000        1 
H       2.15160000       0.71260000       0.54280000        1 
H       2.51720000       1.27840000      -1.13390000        1 
H       1.42620000      -0.11840000       0.26770000        1 
H       2.84730000       0.85010000       2.01820000        1 
