29
Properties=species:S:1:pos:R:3:Z:I:1 pbc="F F F"
O       1.80280000       2.09850000      -1.12940000        8 
O       1.29920000       3.08190000      -0.41340000        8 
C      -1.14650000      -0.17060000      -0.66540000        6 
C      -1.90340000       0.43240000       0.54450000        6 
C       0.13430000      -0.90850000      -0.21320000        6 
C       2.62720000      -0.56220000       0.28170000        6 
C      -2.04520000      -1.13950000      -1.45350000        6 
C      -3.08060000       1.31880000       0.13370000        6 
C       2.76350000      -1.59750000       1.39660000        6 
C       1.23040000       0.06800000       0.23840000        6 
H      -0.84960000       0.65200000      -1.35440000        1 
H      -1.21460000       1.06600000       1.14010000        1 
H      -2.27170000      -0.37940000       1.20940000        1 
H       0.53010000      -1.50110000      -1.06730000        1 
H      -0.10490000      -1.61730000       0.60940000        1 
H       2.86520000      -1.03130000      -0.69710000        1 
H       3.36770000       0.24730000       0.45540000        1 
H      -3.47300000       1.84850000       1.02740000        1 
H      -2.75690000       2.07660000      -0.61100000        1 
H      -3.90570000       0.70930000      -0.28880000        1 
H      -2.90510000      -0.60250000      -1.90370000        1 
H      -1.47880000      -1.60050000      -2.29060000        1 
H      -2.42500000      -1.94770000      -0.79210000        1 
H       2.50380000      -1.14670000       2.37800000        1 
H       3.81260000      -1.95870000       1.43920000        1 
H       2.10250000      -2.46820000       1.20380000        1 
H       0.98820000       0.52720000       1.22010000        1 
H       1.48560000       1.12350000      -0.56020000        1 
H       2.04770000       3.38190000       0.16240000        1 
