15
Properties=species:S:1:pos:R:3:Z:I:1 pbc="F F F"
O      -1.33170000       1.58540000       0.77380000        8 
O       3.08980000       0.42730000       0.37940000        8 
O       3.18240000       1.73740000       0.46260000        8 
C      -1.05390000       0.96270000      -0.45030000        6 
C      -0.49000000      -0.41450000      -0.21640000        6 
C       0.80000000      -0.54950000       0.53440000        6 
C      -1.11910000      -1.50720000      -0.67140000        6 
H      -0.30040000       1.56870000      -0.99580000        1 
H      -1.97280000       0.93350000      -1.08010000        1 
H       0.64750000      -1.14380000       1.46000000        1 
H       1.57040000      -1.03060000      -0.10460000        1 
H      -2.05410000      -1.42950000      -1.21770000        1 
H      -0.70490000      -2.49650000      -0.50040000        1 
H      -2.15740000       1.16060000       1.12600000        1 
H       1.89430000       0.19610000       0.50050000        1 
