15
Properties=species:S:1:pos:R:3:Z:I:1 pbc="F F F"
O       2.12730000       0.64890000       0.84730000        8 
O       2.99450000      -0.15880000       0.27420000        8 
C      -0.54230000      -1.37080000      -0.04130000        6 
C      -0.82090000       0.09490000      -0.20450000        6 
C       0.24330000       0.99050000      -0.76220000        6 
C      -2.01130000       0.59890000       0.14540000        6 
H      -0.64160000      -1.65670000       1.02730000        1 
H       0.48730000      -1.61560000      -0.37870000        1 
H      -1.26250000      -1.96110000      -0.64650000        1 
H      -0.10590000       1.46520000      -1.70340000        1 
H       0.51810000       1.77110000      -0.02160000        1 
H      -2.78860000      -0.04230000       0.55040000        1 
H      -2.22140000       1.65830000       0.03070000        1 
H       1.13620000       0.59790000       0.13130000        1 
H       2.88770000      -1.02040000       0.75150000        1 
