17
Properties=species:S:1:pos:R:3:Z:I:1 pbc="F F F"
O       2.59080000       0.10930000       1.10260000        8 
O       3.30980000      -0.89670000       0.65040000        8 
C      -0.65080000      -0.13180000      -0.49380000        6 
C      -1.87230000       0.74840000      -0.77700000        6 
C      -0.93530000      -1.10750000       0.65040000        6 
C       0.56970000       0.72600000      -0.16120000        6 
H      -0.42100000      -0.72250000      -1.40750000        1 
H      -2.13560000       1.35490000       0.11630000        1 
H      -2.74360000       0.11600000      -1.05090000        1 
H      -1.66110000       1.43300000      -1.62610000        1 
H      -1.79260000      -1.76380000       0.38890000        1 
H      -0.04800000      -1.75140000       0.83150000        1 
H      -1.17650000      -0.55750000       1.58570000        1 
H       0.84860000       1.36440000      -1.02650000        1 
H       0.38230000       1.36330000       0.72990000        1 
H       1.70910000       0.18770000       0.37370000        1 
H       4.02650000      -0.47190000       0.11380000        1 
