12
Properties=species:S:1:pos:R:3:Z:I:1 pbc="F F F"
O       2.26470000       0.35630000      -0.39120000        8 
O       2.72440000       0.75420000       0.77640000        8 
C      -1.29350000       0.12870000      -0.51980000        6 
C      -0.01440000      -0.64170000      -0.44600000        6 
C      -2.01320000       0.36480000       0.57800000        6 
H      -1.63390000       0.51130000      -1.47750000        1 
H       0.46410000      -0.67910000      -1.44700000        1 
H      -0.21400000      -1.67730000      -0.09820000        1 
H      -2.93670000       0.93080000       0.51070000        1 
H      -1.68930000      -0.00210000       1.54750000        1 
H       1.12230000      -0.01840000      -0.16320000        1 
H       3.21950000      -0.02760000       1.13030000        1 
