9
Properties=species:S:1:pos:R:3:Z:I:1 pbc="F F F"
O       2.10030000       0.16900000       0.60770000        8 
O      -1.77670000      -1.11900000      -0.86000000        8 
O       2.59870000      -0.73010000      -0.21390000        8 
C      -0.28640000       0.55910000      -0.12800000        6 
C      -1.28060000      -0.53430000       0.08950000        6 
H      -0.09370000       0.71200000      -1.21140000        1 
H      -0.66810000       1.50250000       0.31460000        1 
H      -1.56280000      -0.81130000       1.09950000        1 
H       0.96920000       0.25210000       0.30190000        1 
