16
Properties=species:S:1:pos:R:3:Z:I:1 pbc="F F F"
O      -2.35560000       0.86970000       0.45720000        8 
O       3.05860000       0.43960000       0.59180000        8 
O       3.23690000       1.51950000      -0.13960000        8 
C      -1.97370000      -0.43750000       0.13210000        6 
C      -0.54270000      -0.43930000      -0.34060000        6 
C       0.55430000      -0.02430000       0.59720000        6 
C      -0.23140000      -0.80390000      -1.59190000        6 
H      -2.65720000      -0.83880000      -0.65030000        1 
H      -2.05500000      -1.08990000       1.02980000        1 
H       0.14530000       0.31240000       1.57330000        1 
H       1.24930000      -0.87330000       0.76890000        1 
H      -0.99960000      -1.10720000      -2.29660000        1 
H       0.80100000      -0.80200000      -1.92940000        1 
H      -3.28780000       0.80920000       0.79250000        1 
H       1.86290000       0.19640000       0.49900000        1 
H       3.19480000       2.26940000       0.50650000        1 
