10
Properties=species:S:1:pos:R:3:Z:I:1 pbc="F F F"
O       1.84010000      -0.43760000       0.03420000        8 
O       2.31160000       0.57740000      -0.65920000        8 
O      -1.58380000       1.45070000      -0.31170000        8 
C      -0.58870000      -0.53860000       0.45450000        6 
C      -1.56120000       0.23260000      -0.37320000        6 
H      -0.69400000      -1.62460000       0.24980000        1 
H      -0.77740000      -0.34870000       1.53180000        1 
H      -2.24780000      -0.28600000      -1.03440000        1 
H       0.68140000      -0.25130000       0.08450000        1 
H       2.61970000       1.22610000       0.02350000        1 
