9
Properties=species:S:1:pos:R:3:Z:I:1 pbc="F F F"
O      -1.92290000       0.46370000       0.31770000        8 
O       1.28460000       0.73950000      -0.35490000        8 
O       2.10230000       0.30320000       0.58000000        8 
C      -0.95530000      -0.35460000      -0.26430000        6 
H      -1.17800000      -0.47960000      -1.34390000        1 
H      -0.96190000      -1.34870000       0.22980000        1 
H      -1.43990000       0.95790000       1.02760000        1 
H       0.33530000       0.00860000      -0.29380000        1 
H       2.73570000      -0.29010000       0.10200000        1 
