15
Properties=species:S:1:pos:R:3:Z:I:1 pbc="F F F"
O       3.14750000      -0.57950000       0.18470000        8 
O       3.40270000       0.48730000      -0.54330000        8 
C      -0.62500000      -0.48640000       0.63790000        6 
C      -1.78650000      -0.19930000      -0.27350000        6 
C       0.68760000      -0.39690000      -0.12690000        6 
C      -2.61810000       0.82430000      -0.05910000        6 
H      -0.73510000      -1.51140000       1.05000000        1 
H      -0.59100000       0.22570000       1.49090000        1 
H      -1.95580000      -0.84730000      -1.12870000        1 
H       0.83630000       0.62660000      -0.53290000        1 
H       0.71590000      -1.14080000      -0.95170000        1 
H      -3.44720000       0.99960000      -0.73690000        1 
H      -2.48220000       1.49280000       0.78550000        1 
H       2.01410000      -0.72820000       0.09610000        1 
H       3.43690000       1.23350000       0.10780000        1 
