11
Properties=species:S:1:pos:R:3:Z:I:1 pbc="F F F"
O       2.24460000      -0.53820000       0.86170000        8 
O       3.18250000      -0.85270000      -0.00620000        8 
C      -0.97360000       0.18970000      -0.56600000        6 
C       0.32260000       0.73270000      -0.05600000        6 
C      -1.70960000      -0.63530000       0.18010000        6 
H      -1.31350000       0.46080000      -1.56120000        1 
H       0.14410000       1.36260000       0.84100000        1 
H       0.81170000       1.34640000      -0.84100000        1 
H      -1.38680000      -0.92560000       1.17560000        1 
H      -2.64560000      -1.02680000      -0.20520000        1 
H       1.32350000      -0.11350000       0.17720000        1 
