12
Properties=species:S:1:pos:R:3:Z:I:1 pbc="F F F"
O       2.40020000       0.53960000       0.06010000        8 
O       2.66130000      -0.50310000       0.82050000        8 
C      -1.72380000      -0.46880000       0.49740000        6 
C      -1.08760000       0.51850000      -0.43030000        6 
C       0.13440000       0.31230000      -0.92070000        6 
H      -2.66840000      -0.83870000       0.04740000        1 
H      -1.05530000      -1.33560000       0.69220000        1 
H      -1.95430000       0.02990000       1.46160000        1 
H      -1.63310000       1.41580000      -0.70600000        1 
H       0.58720000       1.03400000      -1.59260000        1 
H       1.33040000       0.48570000      -0.12540000        1 
H       3.00900000      -1.18960000       0.19590000        1 
