12
Properties=species:S:1:pos:R:3:Z:I:1 pbc="F F F"
O       2.52280000       0.23740000      -0.68830000        8 
O       3.29920000      -0.20670000       0.27710000        8 
C      -0.90990000       0.57440000      -0.26770000        6 
C      -0.37280000      -0.71480000       0.18580000        6 
C      -1.87040000       1.19630000       0.40970000        6 
C       0.58530000      -1.31870000      -0.50440000        6 
H      -0.52080000       1.03230000      -1.16990000        1 
H      -0.75450000      -1.18160000       1.08640000        1 
H      -2.28440000       0.77020000       1.31540000        1 
H      -2.25230000       2.14590000       0.05790000        1 
H       0.98500000      -2.26890000      -0.17490000        1 
H       1.57290000      -0.26590000      -0.52720000        1 
