7
Properties=species:S:1:pos:R:3:Z:I:1 pbc="F F F"
O      -1.05780000      -0.83190000      -0.11250000        8 
O      -1.89320000       0.18470000      -0.15680000        8 
O       2.16780000      -0.57650000       0.40830000        8 
C       1.29420000       0.09140000      -0.11880000        6 
H       0.00400000      -0.35240000      -0.27170000        1 
H      -2.04840000       0.42340000       0.79230000        1 
H       1.53340000       1.06130000      -0.54070000        1 
