11
Properties=species:S:1:pos:R:3:Z:I:1 pbc="F F F"
O      -2.22010000       0.03040000      -0.53370000        8 
O      -2.22220000       1.32240000      -0.27980000        8 
C       0.77560000      -1.02270000      -0.49290000        6 
C       1.72330000      -0.03870000      -0.04390000        6 
C      -0.29390000      -1.32020000       0.23410000        6 
C       2.51840000       0.78610000       0.33160000        6 
H       0.93710000      -1.52670000      -1.43590000        1 
H      -0.48780000      -0.83550000       1.18350000        1 
H       3.21630000       1.51010000       0.66140000        1 
H      -1.24240000      -0.31420000      -0.20630000        1 
H      -2.70430000       1.40900000       0.58180000        1 
