13
Properties=species:S:1:pos:R:3:Z:I:1 pbc="F F F"
O       3.11140000       0.67730000       0.48650000        8 
O      -1.56880000       0.68510000       1.96020000        8 
O       1.91730000       0.12580000       0.52980000        8 
C      -1.28920000       0.34890000      -0.36310000        6 
C      -0.07860000      -0.39740000      -0.90600000        6 
C      -1.59950000      -0.10510000       1.03040000        6 
H      -1.07860000       1.44040000      -0.37430000        1 
H      -2.16820000       0.15280000      -1.01310000        1 
H       1.00710000      -0.16910000      -0.10440000        1 
H       0.15150000      -0.03910000      -1.93160000        1 
H      -0.28280000      -1.48890000      -0.94710000        1 
H      -1.85740000      -1.14270000       1.21740000        1 
H       3.73570000      -0.08810000       0.41530000        1 
