9
Properties=species:S:1:pos:R:3:Z:I:1 pbc="F F F"
O       1.01510000      -0.11130000       0.86620000        8 
O      -1.90470000      -0.71030000      -0.64310000        8 
O      -2.70980000       0.04790000       0.07110000        8 
O       2.18160000       0.10180000      -1.10930000        8 
O       0.18870000      -1.03240000       0.35340000        8 
C       2.02550000       0.45020000       0.09080000        6 
H       2.68230000       1.19240000       0.52340000        1 
H      -0.97410000      -0.91140000       0.06500000        1 
H      -2.50450000       0.97320000      -0.21750000        1 
