11
Properties=species:S:1:pos:R:3:Z:I:1 pbc="F F F"
O       1.95880000       0.51740000       0.51590000        8 
O       1.76840000      -0.75310000       0.80130000        8 
C      -1.31340000      -0.47560000      -0.44960000        6 
C      -0.34870000      -1.38490000      -0.40550000        6 
C      -1.08400000       0.85170000       0.04940000        6 
C      -0.89250000       1.96590000       0.46800000        6 
H      -2.28070000      -0.73000000      -0.86300000        1 
H       0.93550000      -1.05860000       0.13970000        1 
H      -0.52550000      -2.38380000      -0.78250000        1 
H      -0.72430000       2.94400000       0.83550000        1 
H       2.50640000       0.50700000      -0.30910000        1 
