13
Properties=species:S:1:pos:R:3:Z:I:1 pbc="F F F"
O       2.41050000       0.79270000       0.58630000        8 
O       3.23670000       1.02900000      -0.41050000        8 
C      -0.85090000      -0.55090000      -0.44160000        6 
C      -1.43230000       0.72110000       0.16360000        6 
C       0.56840000      -0.78550000       0.05660000        6 
H      -0.83600000      -0.45490000      -1.54830000        1 
H      -1.48880000      -1.41900000      -0.16850000        1 
H      -1.48050000       0.63500000       1.27020000        1 
H      -2.45990000       0.88160000      -0.22520000        1 
H      -0.80690000       1.59780000      -0.10960000        1 
H       0.57210000      -0.95040000       1.15520000        1 
H       1.00410000      -1.67460000      -0.44590000        1 
H       1.56350000       0.17810000       0.11770000        1 
