11
Properties=species:S:1:pos:R:3:Z:I:1 pbc="F F F"
O       2.38650000      -0.18570000      -0.13330000        8 
O       2.91510000       0.85940000      -0.73340000        8 
C      -0.81440000      -1.08580000      -0.33190000        6 
C      -0.73720000       1.16730000       0.68040000        6 
C      -0.08870000       0.08370000       0.25230000        6 
H      -1.37710000      -0.77110000      -1.23610000        1 
H      -1.51860000      -1.50830000       0.41560000        1 
H      -0.07890000      -1.86570000      -0.61700000        1 
H      -0.17800000       1.99680000       1.09860000        1 
H      -1.81930000       1.23290000       0.61700000        1 
H       1.31060000       0.07650000      -0.01220000        1 
