20
Properties=species:S:1:pos:R:3:Z:I:1 pbc="F F F"
O       1.60160000      -0.81960000      -1.15110000        8 
O      -2.73720000       1.74210000       0.36170000        8 
O       4.38120000      -0.05640000       0.27840000        8 
O       5.19040000       0.98200000       0.28990000        8 
O       2.24370000       0.17870000      -0.57330000        8 
C      -0.65070000      -0.15670000      -0.58380000        6 
C      -1.87410000      -0.51600000       0.26980000        6 
C       0.50880000      -1.12360000      -0.32050000        6 
C      -3.05270000       0.42500000      -0.00230000        6 
H      -0.32350000       0.87890000      -0.34660000        1 
H      -0.92260000      -0.20210000      -1.66130000        1 
H      -1.60840000      -0.46900000       1.34870000        1 
H      -2.19250000      -1.55590000       0.03790000        1 
H       0.79780000      -1.10830000       0.75690000        1 
H       0.17730000      -2.15760000      -0.55540000        1 
H      -3.94680000       0.07540000       0.56220000        1 
H      -3.30970000       0.40110000      -1.08280000        1 
H      -2.76710000       1.77770000       1.35340000        1 
H       3.37090000       0.35460000      -0.18860000        1 
H       5.11360000       1.34970000       1.20670000        1 
