7
Properties=species:S:1:pos:R:3:Z:I:1 pbc="F F F"
O      -2.28330000       0.01420000       0.35280000        8 
O      -1.45470000      -0.03360000      -0.66840000        8 
C       1.18010000       0.17610000      -0.16960000        6 
C       2.31530000       0.34450000       0.19920000        6 
H      -0.48830000      -0.07150000      -0.71160000        1 
H       3.31200000       0.49250000       0.52300000        1 
H      -2.58120000      -0.92230000       0.47470000        1 
