6
Properties=species:S:1:pos:R:3:Z:I:1 pbc="F F F"
O       1.82480000      -0.40600000      -0.05530000        8 
O      -1.77820000       0.19710000      -0.37400000        8 
O       0.51240000      -0.34970000      -0.13560000        8 
H       2.10190000       0.52520000       0.13620000        1 
H      -0.39610000       0.07990000      -0.02470000        1 
H      -2.26480000      -0.04640000       0.45340000        1 
