9
Properties=species:S:1:pos:R:3:Z:I:1 pbc="F F F"
O      -2.07970000       0.75100000      -0.60840000        8 
O      -2.55300000       1.24380000       0.51630000        8 
C      -0.13240000      -0.77720000      -0.13170000        6 
C       1.11250000      -0.06250000       0.15110000        6 
C       2.13810000       0.52650000       0.38410000        6 
H      -0.22490000      -1.64510000       0.55330000        1 
H      -0.12400000      -1.13430000      -1.18210000        1 
H       3.03850000       1.04360000       0.58870000        1 
H      -1.17520000       0.05430000      -0.27140000        1 
