10
Properties=species:S:1:pos:R:3:Z:I:1 pbc="F F F"
O       2.87370000       0.01700000      -0.01340000        8 
O       1.79100000      -0.72200000       0.10290000        8 
C      -0.72830000      -0.92830000       0.02390000        6 
C      -1.23780000       0.44290000       0.04880000        6 
C      -1.65730000       1.57280000       0.06940000        6 
H       0.61100000      -0.90950000       0.11670000        1 
H      -1.15020000      -1.49560000       0.87900000        1 
H      -1.02620000      -1.41670000      -0.92670000        1 
H      -2.02560000       2.56480000       0.08750000        1 
H       2.54970000       0.87450000      -0.38800000        1 
