10
Properties=species:S:1:pos:R:3:Z:I:1 pbc="F F F"
O      -1.55010000      -0.17250000      -0.97260000        8 
O       2.97530000       0.15240000      -0.09470000        8 
O       1.82600000      -0.45510000      -0.29950000        8 
C      -0.66270000      -0.70820000      -0.02030000        6 
C      -1.49630000       0.47230000       0.27750000        6 
H       0.60250000      -0.46360000      -0.34080000        1 
H      -1.02660000      -1.67940000       0.37500000        1 
H      -0.98970000       1.45700000       0.20680000        1 
H      -2.41570000       0.28790000       0.87140000        1 
H       2.73720000       1.10920000      -0.00270000        1 
