16
Properties=species:S:1:pos:R:3:Z:I:1 pbc="F F F"
O      -1.74950000       1.26820000      -0.83690000        8 
O       3.25400000       0.75340000      -0.02160000        8 
O       2.62830000      -0.00510000      -0.89620000        8 
C      -1.00970000       0.95150000       0.30880000        6 
C       0.29970000      -0.96930000      -0.83810000        6 
C      -0.61170000      -0.50090000       0.26470000        6 
C      -1.05010000      -1.35980000       1.19860000        6 
H      -1.61720000       1.17660000       1.21470000        1 
H      -0.08870000       1.57460000       0.34800000        1 
H       1.42090000      -0.29170000      -0.79210000        1 
H      -0.18540000      -0.79680000      -1.82150000        1 
H       0.53900000      -2.05100000      -0.75040000        1 
H      -0.76340000      -2.40680000       1.17610000        1 
H      -1.70460000      -1.03080000       2.00010000        1 
H      -1.95500000       2.23710000      -0.77340000        1 
H       2.59350000       1.45090000       0.21930000        1 
