13
Properties=species:S:1:pos:R:3:Z:I:1 pbc="F F F"
O      -2.75740000       1.52560000      -0.40210000        8 
O      -2.07020000       0.51890000      -0.89840000        8 
C      -0.49690000      -1.28390000      -0.07530000        6 
C       0.94420000      -1.01220000      -0.34660000        6 
C       2.07320000       1.15430000       0.56350000        6 
C       1.50920000       0.07170000       0.10870000        6 
H      -1.23110000      -0.31280000      -0.56150000        1 
H      -0.66930000      -1.36480000       1.01900000        1 
H      -0.79560000      -2.23800000      -0.55770000        1 
H       1.52640000      -1.71060000      -0.93330000        1 
H       2.51900000       1.15860000       1.54870000        1 
H       2.09270000       2.04930000      -0.04300000        1 
H      -2.64420000       1.44390000       0.57820000        1 
