15
Properties=species:S:1:pos:R:3:Z:I:1 pbc="F F F"
O       3.56200000      -0.21860000       0.67530000        8 
O       2.31620000      -0.60540000       0.84890000        8 
C      -0.97730000      -0.60600000      -0.13280000        6 
C       0.35410000      -1.14050000      -0.64590000        6 
C      -0.96440000       0.89520000      -0.05300000        6 
C      -2.03540000       1.56720000       0.37540000        6 
H      -1.78950000      -0.93450000      -0.81700000        1 
H      -1.16890000      -1.02730000       0.87760000        1 
H       1.36580000      -0.75150000       0.18990000        1 
H       0.55450000      -0.75860000      -1.66990000        1 
H       0.32330000      -2.25000000      -0.67850000        1 
H      -0.07760000       1.45200000      -0.34510000        1 
H      -2.93890000       1.04460000       0.67550000        1 
H      -2.01200000       2.65080000       0.42780000        1 
H       3.48800000       0.68270000       0.27180000        1 
