15
Properties=species:S:1:pos:R:3:Z:I:1 pbc="F F F"
O       4.06580000      -1.77280000      -0.82960000        8 
O       2.89550000      -1.55170000      -0.26980000        8 
C      -1.39130000       0.49430000       0.66610000        6 
C      -2.24760000       1.36700000      -0.24580000        6 
C      -0.19030000      -0.04360000      -0.06220000        6 
C       0.69040000      -0.83200000       0.55640000        6 
H      -1.05520000       1.09960000       1.53570000        1 
H      -2.00670000      -0.35280000       1.03940000        1 
H      -2.61340000       0.77580000      -1.11250000        1 
H      -1.65820000       2.23380000      -0.61430000        1 
H      -3.12390000       1.74780000       0.31970000        1 
H      -0.02360000       0.20400000      -1.10660000        1 
H       1.82590000      -1.33070000      -0.16130000        1 
H       0.56140000      -1.10410000       1.59980000        1 
H       4.27100000      -0.93450000      -1.31500000        1 
