12
Properties=species:S:1:pos:R:3:Z:I:1 pbc="F F F"
O       3.31150000      -0.14170000      -0.16870000        8 
O       2.03170000      -0.15700000      -0.47500000        8 
C      -1.44020000      -0.95140000      -0.11660000        6 
C      -0.42780000       0.14770000      -0.04780000        6 
C      -0.79420000       1.41550000       0.14710000        6 
H      -2.00760000      -1.00560000       0.83640000        1 
H      -0.92250000      -1.91850000      -0.28330000        1 
H      -2.14280000      -0.76890000      -0.95700000        1 
H       0.93530000      -0.16250000      -0.19150000        1 
H      -0.03970000       2.19320000       0.19290000        1 
H      -1.84030000       1.68410000       0.26140000        1 
H       3.33650000      -0.33490000       0.80220000        1 
