11
Properties=species:S:1:pos:R:3:Z:I:1 pbc="F F F"
O       3.32750000       1.04370000      -0.13550000        8 
O      -0.54120000       0.85080000       1.58890000        8 
O       2.39380000       0.19830000       0.24570000        8 
C      -1.04620000      -0.51830000      -0.29530000        6 
C      -2.36350000      -0.53190000      -0.10120000        6 
C      -0.12310000       0.20370000       0.59180000        6 
H      -0.63250000      -1.05800000      -1.13740000        1 
H      -3.00310000      -1.07830000      -0.78220000        1 
H      -2.81870000      -0.00560000       0.72830000        1 
H       1.20740000       0.17110000       0.32940000        1 
H       3.59980000       0.72470000      -1.03260000        1 
