10
Properties=species:S:1:pos:R:3:Z:I:1 pbc="F F F"
O      -2.65670000      -0.65180000      -0.00890000        8 
O       2.78930000       1.09310000      -0.66820000        8 
O       1.97890000       0.34600000       0.05080000        8 
C      -1.28060000      -0.65520000      -0.22720000        6 
C      -0.46020000       0.06130000       0.53320000        6 
H      -0.87340000      -1.25300000      -1.03130000        1 
H       0.95010000       0.03490000       0.28120000        1 
H      -0.84210000       0.66790000       1.34420000        1 
H      -3.07800000      -0.10530000       0.73380000        1 
H       3.47270000       0.46200000      -1.00770000        1 
