7
Properties=species:S:1:pos:R:3:Z:I:1 pbc="F F F"
O       2.19900000       0.10260000       0.24490000        8 
O      -2.24420000      -0.79290000      -0.23860000        8 
O       1.02550000      -0.48940000       0.30930000        8 
C      -1.43900000       0.08020000       0.03780000        6 
H      -0.14460000      -0.24370000       0.28250000        1 
H      -1.75770000       1.11550000       0.08810000        1 
H       2.36090000       0.22780000      -0.72400000        1 
