15
Properties=species:S:1:pos:R:3:Z:I:1 pbc="F F F"
O       2.39680000      -0.55040000       0.37960000        8 
O      -0.48470000      -1.04420000       2.16130000        8 
O       2.51500000      -1.68770000      -0.27190000        8 
C      -0.19970000      -0.14310000      -1.35470000        6 
C      -0.60170000       1.47240000       0.54350000        6 
C      -0.03690000       0.10750000       0.14540000        6 
C      -0.66330000      -0.99410000       0.95500000        6 
H       0.25390000      -1.12000000      -1.62560000        1 
H       0.32170000       0.65080000      -1.92990000        1 
H      -1.27450000      -0.15010000      -1.63770000        1 
H      -1.69590000       1.51420000       0.35290000        1 
H      -0.41330000       1.66260000       1.62130000        1 
H      -0.10120000       2.27440000      -0.03910000        1 
H      -1.26660000      -1.76010000       0.47680000        1 
H       1.25030000      -0.23200000       0.22310000        1 
