10
Properties=species:S:1:pos:R:3:Z:I:1 pbc="F F F"
O       2.26100000       0.39830000       0.55650000        8 
O       2.96770000      -0.37330000      -0.24170000        8 
C      -1.28470000      -0.51100000      -0.02340000        6 
C      -0.12120000       0.46260000      -0.05720000        6 
H      -1.45060000      -0.85630000       1.01820000        1 
H      -2.20490000      -0.01410000      -0.39670000        1 
H      -1.05500000      -1.38760000      -0.66420000        1 
H       0.05690000       0.80620000      -1.09790000        1 
H      -0.33980000       1.33880000       0.58880000        1 
H       1.17050000       0.13650000       0.31760000        1 
