11
Properties=species:S:1:pos:R:3:Z:I:1 pbc="F F F"
O       1.79660000      -0.66130000      -0.53520000        8 
O       2.72590000      -0.21060000       0.28130000        8 
C      -1.55890000       0.21300000      -0.40930000        6 
C      -0.41860000      -0.15200000       0.52290000        6 
H      -1.70710000      -0.59880000      -1.15150000        1 
H      -2.49380000       0.35340000       0.17320000        1 
H      -1.31500000       1.15420000      -0.94460000        1 
H      -0.65130000      -1.09780000       1.05610000        1 
H      -0.25820000       0.65970000       1.26350000        1 
H       0.81120000      -0.26900000      -0.09950000        1 
H       3.06910000       0.60930000      -0.15680000        1 
