9
Properties=species:S:1:pos:R:3:Z:I:1 pbc="F F F"
O      -1.80910000      -0.97840000       0.15490000        8 
O      -2.42430000       0.01930000      -0.44500000        8 
O       0.46370000      -0.57270000       0.21500000        8 
C       1.56550000       0.25580000       0.00880000        6 
H       2.16880000       0.30700000       0.93850000        1 
H       2.18740000      -0.15380000      -0.81350000        1 
H       1.21720000       1.27360000      -0.26250000        1 
H      -0.78800000      -0.83700000      -0.06750000        1 
H      -2.58120000       0.68620000       0.27130000        1 
