15
Properties=species:S:1:pos:R:3:Z:I:1 pbc="F F F"
O      -0.21850000       0.78040000      -1.27440000        8 
O       3.38780000       0.56270000      -0.70210000        8 
O       1.02630000       0.56100000      -0.88940000        8 
O       3.79960000      -0.33730000       0.16520000        8 
C      -1.07210000       0.18860000      -0.31720000        6 
C      -0.89080000      -1.33450000      -0.25560000        6 
C      -0.91620000       0.83800000       1.06510000        6 
H      -2.11550000       0.37890000      -0.65020000        1 
H      -0.99180000      -1.76680000      -1.27360000        1 
H       0.10760000      -1.60160000       0.15140000        1 
H      -1.67040000      -1.78380000       0.39610000        1 
H      -1.69650000       0.45300000       1.75580000        1 
H      -1.03510000       1.93890000       0.97900000        1 
H       0.08170000       0.61670000       1.49990000        1 
H       2.20380000       0.50580000      -0.65010000        1 
