17
Properties=species:S:1:pos:R:3:Z:I:1 pbc="F F F"
O       3.13530000      -0.40390000      -0.36630000        8 
O       2.20930000       0.52170000      -0.23260000        8 
C      -0.25350000       0.06510000       0.07370000        6 
C      -0.45650000      -0.36090000       1.53080000        6 
C      -0.72260000      -1.03580000      -0.88220000        6 
C      -0.98650000       1.37890000      -0.21290000        6 
H       1.02960000       0.25960000      -0.12220000        1 
H       0.10930000      -1.29420000       1.73680000        1 
H      -0.07900000       0.42890000       2.21430000        1 
H      -1.53310000      -0.53740000       1.74290000        1 
H      -0.15830000      -1.97290000      -0.68970000        1 
H      -0.53650000      -0.73140000      -1.93390000        1 
H      -1.80810000      -1.23490000      -0.75090000        1 
H      -2.08090000       1.26080000      -0.05920000        1 
H      -0.80190000       1.69690000      -1.26100000        1 
H      -0.61200000       2.17850000       0.46080000        1 
H       3.54550000      -0.21890000      -1.24840000        1 
