18
Properties=species:S:1:pos:R:3:Z:I:1 pbc="F F F"
O      -0.83460000       2.11380000       0.64190000        8 
O       3.31130000       0.69240000      -0.19810000        8 
O       2.15270000       0.06840000      -0.18860000        8 
C      -0.29810000      -0.15920000      -0.00160000        6 
C      -1.05690000       1.13650000      -0.33890000        6 
C      -0.78530000      -0.75800000       1.32340000        6 
C      -0.44950000      -1.17900000      -1.13490000        6 
H       0.97800000       0.12310000       0.11890000        1 
H      -2.14780000       0.93210000      -0.39740000        1 
H      -0.73370000       1.52180000      -1.33300000        1 
H      -1.86750000      -1.00460000       1.26930000        1 
H      -0.21650000      -1.68350000       1.55500000        1 
H      -0.61980000      -0.03970000       2.15370000        1 
H       0.12850000      -2.09810000      -0.90080000        1 
H      -0.05360000      -0.75690000      -2.08290000        1 
H      -1.51730000      -1.45100000      -1.27930000        1 
H       0.08730000       2.45410000       0.50010000        1 
H       3.92280000       0.08780000       0.29300000        1 
