16
Properties=species:S:1:pos:R:3:Z:I:1 pbc="F F F"
O       3.02550000       0.21590000      -0.25570000        8 
O      -1.54870000       2.16870000      -0.01680000        8 
O       2.03370000      -0.11590000      -1.05460000        8 
C      -0.29860000       0.13500000      -0.13380000        6 
C      -0.98110000      -1.17020000      -0.54780000        6 
C      -0.17890000       0.21980000       1.39370000        6 
C      -1.04110000       1.31030000      -0.72270000        6 
H       0.91790000       0.13740000      -0.63390000        1 
H      -0.40980000      -2.03970000      -0.15870000        1 
H      -2.01870000      -1.21320000      -0.15150000        1 
H      -1.01450000      -1.24850000      -1.65550000        1 
H       0.41150000      -0.63940000       1.77680000        1 
H       0.34790000       1.15420000       1.68220000        1 
H      -1.18320000       0.20630000       1.86960000        1 
H      -1.12580000       1.39560000      -1.80120000        1 
H       3.06380000      -0.51660000       0.40960000        1 
