16
Properties=species:S:1:pos:R:3:Z:I:1 pbc="F F F"
O       0.21840000       0.80700000       0.19850000        8 
O       3.53540000       0.22910000       0.45670000        8 
O       4.30630000      -0.80230000       0.18260000        8 
O       1.24490000      -0.02190000       0.24940000        8 
C      -0.88400000       0.05450000      -0.24950000        6 
C      -1.49030000      -0.73650000       0.91470000        6 
C      -1.92210000       1.00810000      -0.83970000        6 
H      -0.58550000      -0.65490000      -1.05810000        1 
H      -2.37680000      -1.31070000       0.57000000        1 
H      -1.79770000      -0.04980000       1.73240000        1 
H      -0.74540000      -1.45620000       1.31500000        1 
H      -1.47620000       1.56970000      -1.68800000        1 
H      -2.26430000       1.73530000      -0.07220000        1 
H      -2.79850000       0.43940000      -1.21790000        1 
H       2.43200000      -0.15850000       0.25650000        1 
H       4.60360000      -0.65220000      -0.75060000        1 
