16
Properties=species:S:1:pos:R:3:Z:I:1 pbc="F F F"
O       3.45710000       0.73150000      -0.05730000        8 
O      -3.00530000      -0.39490000      -1.10080000        8 
O       2.43650000       0.54840000      -0.86770000        8 
C      -0.83370000       0.06020000      -0.27120000        6 
C       0.34820000      -0.82980000      -0.65680000        6 
C      -0.64150000       0.63490000       1.13350000        6 
C      -2.11360000      -0.72610000      -0.33580000        6 
H      -0.88080000       0.90670000      -0.99190000        1 
H       1.50660000      -0.10170000      -0.62250000        1 
H       0.21210000      -1.21990000      -1.68830000        1 
H       0.44190000      -1.68810000       0.04350000        1 
H      -1.49610000       1.29510000       1.39520000        1 
H      -0.57340000      -0.17950000       1.88710000        1 
H       0.28900000       1.24040000       1.17500000        1 
H      -2.25100000      -1.59540000       0.30010000        1 
H       3.10380000       1.31820000       0.65790000        1 
