18
Properties=species:S:1:pos:R:3:Z:I:1 pbc="F F F"
O       0.58590000      -0.78470000       0.83850000        8 
O       3.37840000       0.52410000      -0.21630000        8 
O       2.64610000       0.21790000       0.83340000        8 
C      -0.48350000      -0.19370000       0.14670000        6 
C      -0.82260000       1.16380000       0.78490000        6 
C      -0.10030000      -0.00590000      -1.33080000        6 
C      -1.69700000      -1.12830000       0.24910000        6 
H      -1.06580000       1.03330000       1.86130000        1 
H      -1.69550000       1.62850000       0.27740000        1 
H       0.03920000       1.86050000       0.70560000        1 
H      -0.95040000       0.42190000      -1.90500000        1 
H       0.17860000      -0.98170000      -1.78330000        1 
H       0.76710000       0.68190000      -1.42650000        1 
H      -1.45990000      -2.11890000      -0.19530000        1 
H      -2.57190000      -0.70000000      -0.28640000        1 
H      -1.97510000      -1.28470000       1.31370000        1 
H       1.59890000       0.01600000       0.74170000        1 
H       3.62770000      -0.35030000      -0.60860000        1 
