18
Properties=species:S:1:pos:R:3:Z:I:1 pbc="F F F"
O      -0.51390000      -0.31480000       1.78970000        8 
O       3.68780000      -0.00280000       1.08430000        8 
O       2.59340000      -0.66730000       0.78020000        8 
C      -0.43740000       0.19150000      -0.58820000        6 
C       0.28310000       0.23040000       0.77070000        6 
C      -1.69370000       1.07120000      -0.58620000        6 
C      -0.78010000      -1.24690000      -0.99350000        6 
H       0.26270000       0.60110000      -1.34930000        1 
H       1.40130000      -0.48060000       0.68490000        1 
H       0.58240000       1.27600000       1.01650000        1 
H      -1.43400000       2.11000000      -0.29020000        1 
H      -2.13700000       1.10260000      -1.60440000        1 
H      -2.45510000       0.67470000       0.11890000        1 
H       0.14040000      -1.86820000      -1.01740000        1 
H      -1.23140000      -1.25940000      -2.00860000        1 
H      -1.50050000      -1.69870000      -0.27830000        1 
H      -1.05710000       0.42890000       2.16000000        1 
H       4.28900000      -0.14770000       0.31090000        1 
