20
Properties=species:S:1:pos:R:3:Z:I:1 pbc="F F F"
O       0.48540000      -0.34360000      -1.77470000        8 
O       0.31020000      -1.84920000      -0.03450000        8 
O       3.70270000      -0.73700000       0.11350000        8 
O       3.99460000       0.53390000       0.29450000        8 
O       1.46550000      -1.35110000       0.36840000        8 
C      -0.81230000       0.31720000       0.18150000        6 
C      -0.35320000      -0.83280000      -0.75340000        6 
C      -1.59780000       1.38310000      -0.59620000        6 
C      -1.67100000      -0.22170000       1.33510000        6 
H       0.08380000       0.80990000       0.61950000        1 
H      -1.26070000      -1.30010000      -1.20500000        1 
H      -0.95470000       1.85160000      -1.37060000        1 
H      -1.93700000       2.18830000       0.09010000        1 
H      -2.48750000       0.93420000      -1.08800000        1 
H      -1.08770000      -0.93640000       1.95310000        1 
H      -2.57380000      -0.73790000       0.94330000        1 
H      -1.99330000       0.61100000       1.99620000        1 
H      -0.09200000      -0.12290000      -2.55160000        1 
H       2.52340000      -0.79430000       0.23070000        1 
H       4.25540000       0.59800000       1.24830000        1 
