19
Properties=species:S:1:pos:R:3:Z:I:1 pbc="F F F"
O      -0.71300000       2.19800000       0.39380000        8 
O       0.63690000      -1.79060000      -0.33280000        8 
O       3.93500000      -0.77000000      -0.57950000        8 
O       1.93650000      -1.95390000      -0.48970000        8 
O       4.38280000      -0.33020000       0.57720000        8 
C      -1.08750000      -0.11030000      -0.23280000        6 
C      -1.39720000       1.37140000      -0.50860000        6 
C       0.41130000      -0.40720000      -0.41510000        6 
C      -1.56990000      -0.51980000       1.16680000        6 
H      -1.65170000      -0.71390000      -0.97840000        1 
H      -1.09720000       1.62450000      -1.55050000        1 
H      -2.49340000       1.54350000      -0.41770000        1 
H       0.99680000       0.12440000       0.37020000        1 
H       0.73500000      -0.03780000      -1.41520000        1 
H      -1.42380000      -1.60990000       1.32120000        1 
H      -2.65350000      -0.30160000       1.27770000        1 
H      -1.01110000       0.02970000       1.95430000        1 
H      -0.96000000       3.12920000       0.15580000        1 
H       3.02400000      -1.47550000      -0.29670000        1 
