19
Properties=species:S:1:pos:R:3:Z:I:1 pbc="F F F"
O      -1.39470000       0.75310000      -1.96570000        8 
O       0.67430000      -1.00630000      -0.87620000        8 
O       3.68420000      -0.03350000       0.71880000        8 
O       1.47380000      -0.46480000       0.02440000        8 
O       4.26450000       0.68040000      -0.22220000        8 
C      -1.29950000       0.45770000      -0.59460000        6 
C      -0.65150000      -0.93940000      -0.38560000        6 
C      -0.60480000       1.61010000       0.14730000        6 
C      -0.79610000      -1.47450000       1.05320000        6 
H      -2.33900000       0.40310000      -0.20280000        1 
H      -1.24450000      -1.64060000      -1.01330000        1 
H       0.41310000       1.79160000      -0.25540000        1 
H      -1.19410000       2.54170000       0.01140000        1 
H      -0.54260000       1.40410000       1.23520000        1 
H      -1.86960000      -1.52540000       1.33410000        1 
H      -0.27040000      -0.83180000       1.78870000        1 
H      -0.37130000      -2.49890000       1.11410000        1 
H      -0.47080000       0.83170000      -2.32100000        1 
H       2.53900000      -0.05810000       0.40970000        1 
