19
Properties=species:S:1:pos:R:3:Z:I:1 pbc="F F F"
O      -2.44450000       0.38570000       1.64430000        8 
O       1.46970000      -1.79370000       0.01040000        8 
O       4.10430000       0.05260000      -1.22370000        8 
O       2.56080000      -1.60640000      -0.70720000        8 
O       4.11770000       1.08300000      -0.40530000        8 
C      -1.41860000       0.53380000       0.69730000        6 
C      -0.58430000      -0.76020000       0.67310000        6 
C       0.70510000      -0.62730000      -0.14290000        6 
C      -2.03540000       0.84470000      -0.67230000        6 
H      -0.75690000       1.38040000       0.99700000        1 
H      -1.19430000      -1.59920000       0.27140000        1 
H      -0.30760000      -1.01830000       1.71930000        1 
H       0.45230000      -0.48630000      -1.21720000        1 
H       1.28140000       0.25370000       0.22140000        1 
H      -2.70090000       1.73040000      -0.59290000        1 
H      -2.63540000      -0.01700000      -1.03510000        1 
H      -1.24640000       1.08260000      -1.41510000        1 
H      -2.76110000       1.29880000       1.87290000        1 
H       3.39420000      -0.73750000      -0.69530000        1 
