20
Properties=species:S:1:pos:R:3:Z:I:1 pbc="F F F"
O      -1.36780000      -1.61070000       0.25420000        8 
O       1.19090000      -0.39580000      -0.01900000        8 
O       4.50800000      -0.73540000       0.12230000        8 
O       4.70530000       0.00210000       1.19490000        8 
O       2.32590000      -0.41290000      -0.69100000        8 
C      -1.86720000      -0.38820000      -0.22560000        6 
C      -0.91320000       0.76230000       0.14830000        6 
C       0.44180000       0.66080000      -0.55940000        6 
C      -3.24890000      -0.15250000       0.38360000        6 
H      -1.99190000      -0.41830000      -1.33490000        1 
H      -1.38030000       1.72830000      -0.14520000        1 
H      -0.75500000       0.78420000       1.24930000        1 
H       0.28250000       0.51080000      -1.65190000        1 
H       0.98700000       1.62010000      -0.40810000        1 
H      -3.18190000      -0.09980000       1.49150000        1 
H      -3.68430000       0.79510000       0.00010000        1 
H      -3.92840000      -0.98660000       0.10720000        1 
H      -0.87560000      -2.03990000      -0.49350000        1 
H       3.46620000      -0.36630000      -0.30910000        1 
H       5.28680000       0.74260000       0.88650000        1 
