11
Properties=species:S:1:pos:R:3:Z:I:1 pbc="F F F"
O       2.98720000       0.28040000      -0.04210000        8 
O       1.90220000      -0.45260000       0.08960000        8 
C      -0.60790000      -0.77290000       0.09130000        6 
C      -1.35770000       0.54660000       0.05280000        6 
H       0.73930000      -0.53320000       0.11770000        1 
H      -0.89510000      -1.34360000       0.99950000        1 
H      -0.85430000      -1.37310000      -0.80980000        1 
H      -1.10700000       1.14520000       0.95340000        1 
H      -2.45180000       0.35880000       0.03130000        1 
H      -1.06620000       1.11570000      -0.85460000        1 
H       2.71130000       1.02870000      -0.62910000        1 
