14
Properties=species:S:1:pos:R:3:Z:I:1 pbc="F F F"
O       3.37350000      -1.19970000       1.15780000        8 
O       1.82270000       1.87550000      -0.71170000        8 
O       2.14450000      -0.74760000       1.28870000        8 
C      -2.47140000      -0.28970000      -0.34130000        6 
C      -1.04370000      -0.10090000       0.05890000        6 
C      -0.28140000       0.81820000      -0.53380000        6 
C       1.11790000       1.00280000      -0.14100000        6 
H      -2.53060000      -0.57190000      -1.41380000        1 
H      -2.92780000      -1.09780000       0.26770000        1 
H      -3.03970000       0.64970000      -0.17430000        1 
H      -0.63550000      -0.72720000       0.84390000        1 
H      -0.69390000       1.44230000      -1.31840000        1 
H       1.66440000       0.23820000       0.83710000        1 
H       3.50100000      -1.29190000       0.18010000        1 
