15
Properties=species:S:1:pos:R:3:Z:I:1 pbc="F F F"
O      -3.23890000      -1.12720000      -1.24130000        8 
O      -2.54390000      -0.14470000      -0.70900000        8 
C       0.23320000       1.71750000       0.51930000        6 
C       1.97780000      -0.74050000       0.12560000        6 
C      -0.27730000       0.36560000       0.10430000        6 
C       0.49020000      -0.72310000      -0.07080000        6 
H      -0.02830000       2.45720000      -0.26500000        1 
H      -0.26210000       2.01390000       1.46670000        1 
H       1.33050000       1.74230000       0.67380000        1 
H       2.46370000      -0.02690000      -0.57270000        1 
H       2.36860000      -1.75860000      -0.08230000        1 
H       2.22790000      -0.47410000       1.17410000        1 
H      -1.65990000       0.23990000      -0.11450000        1 
H       0.00440000      -1.64570000      -0.37250000        1 
H      -3.08590000      -1.89570000      -0.63590000        1 
