11
Properties=species:S:1:pos:R:3:Z:I:1 pbc="F F F"
O      -2.95490000       0.32470000       0.87500000        8 
O       3.33920000       0.59620000       0.95740000        8 
O      -2.04070000      -0.49690000       0.40490000        8 
C       0.34090000      -0.74460000      -0.40070000        6 
C       1.14180000       0.51390000      -0.31930000        6 
C       2.26980000       0.55620000       0.33610000        6 
H      -0.84510000      -0.53440000       0.11670000        1 
H       0.22350000      -1.03620000      -1.46510000        1 
H       0.82950000      -1.57910000       0.14840000        1 
H       0.77840000       1.40770000      -0.80830000        1 
H      -3.08230000       0.99240000       0.15490000        1 
