18
Properties=species:S:1:pos:R:3:Z:I:1 pbc="F F F"
O       0.73390000       0.55710000      -0.46190000        8 
O       3.87540000       0.83550000       0.83160000        8 
O       2.79960000       0.11670000       0.59140000        8 
C      -0.22380000      -0.35520000       0.00010000        6 
C      -1.63250000       0.15330000      -0.34280000        6 
C       0.02600000      -1.72140000      -0.64020000        6 
C      -1.95170000       1.46400000       0.37390000        6 
H      -0.13530000      -0.46040000       1.10500000        1 
H      -1.72100000       0.30900000      -1.44050000        1 
H      -2.38680000      -0.60510000      -0.03840000        1 
H      -2.98440000       1.78350000       0.12020000        1 
H      -1.24800000       2.26260000       0.05700000        1 
H      -1.88290000       1.32910000       1.47440000        1 
H      -0.04940000      -1.65140000      -1.74660000        1 
H       1.04160000      -2.08370000      -0.37420000        1 
H      -0.71610000      -2.46130000      -0.27120000        1 
H       1.82560000       0.28410000       0.17860000        1 
H       4.62970000       0.24370000       0.58360000        1 
