16
Properties=species:S:1:pos:R:3:Z:I:1 pbc="F F F"
O       3.01200000       2.00680000      -0.29690000        8 
O      -0.49520000      -2.07930000      -0.87700000        8 
O       1.91650000       1.27760000      -0.29420000        8 
C      -1.42140000      -0.32960000       0.41300000        6 
C      -1.98360000       0.50750000      -0.73150000        6 
C       1.09810000      -0.98640000       0.47340000        6 
C      -0.28640000      -1.19550000      -0.05920000        6 
H      -2.22420000      -0.97370000       0.83170000        1 
H      -1.07300000       0.35270000       1.21870000        1 
H      -2.38730000      -0.14980000      -1.53100000        1 
H      -1.19040000       1.15900000      -1.15680000        1 
H      -2.80630000       1.14980000      -0.35260000        1 
H       1.50010000       0.26990000       0.19480000        1 
H       1.10130000      -1.13610000       1.57330000        1 
H       1.81010000      -1.70310000       0.01110000        1 
H       3.42970000       1.83040000       0.58350000        1 
