14
Properties=species:S:1:pos:R:3:Z:I:1 pbc="F F F"
O       3.42040000       0.06630000       0.52720000        8 
O       2.14400000       0.24850000       0.26330000        8 
C      -1.18470000      -0.33800000      -0.45410000        6 
C      -0.03600000       0.54130000      -0.93430000        6 
C      -1.43120000      -0.15380000       1.03950000        6 
H      -2.10790000      -0.07680000      -1.01500000        1 
H      -0.93800000      -1.40230000      -0.65620000        1 
H       1.11190000       0.22060000      -0.26140000        1 
H      -0.27370000       1.61350000      -0.76650000        1 
H       0.12900000       0.37860000      -2.02020000        1 
H      -2.27040000      -0.80620000       1.36050000        1 
H      -1.69790000       0.90200000       1.25940000        1 
H      -0.52420000      -0.43160000       1.61770000        1 
H       3.65870000      -0.76220000       0.04010000        1 
