18
Properties=species:S:1:pos:R:3:Z:I:1 pbc="F F F"
O       0.28720000      -1.13490000      -1.24560000        8 
O       4.13500000      -0.64250000       0.79360000        8 
O       2.91370000      -1.10750000       0.63880000        8 
C      -0.03220000       0.72210000       0.25390000        6 
C      -1.55700000       0.76170000       0.44840000        6 
C       0.52150000      -0.69280000       0.06100000        6 
C      -2.33170000       0.42600000      -0.82520000        6 
H      -1.85830000       0.06640000       1.26180000        1 
H      -1.84040000       1.78880000       0.76540000        1 
H       0.26630000       1.36740000      -0.60100000        1 
H       0.43860000       1.14780000       1.16600000        1 
H       1.83100000      -0.66500000       0.27930000        1 
H       0.05990000      -1.39380000       0.79160000        1 
H      -1.98090000       1.05300000      -1.67230000        1 
H      -2.21620000      -0.64700000      -1.08220000        1 
H      -3.41200000       0.62490000      -0.66260000        1 
H       0.76280000      -2.00150000      -1.32460000        1 
H       4.01280000       0.32710000       0.95380000        1 
