16
Properties=species:S:1:pos:R:3:Z:I:1 pbc="F F F"
O       3.79020000       0.34230000       0.35370000        8 
O       0.89870000      -2.73710000      -0.05610000        8 
O       2.69370000      -0.17370000       0.86660000        8 
C      -0.68030000       0.53850000       0.03640000        6 
C      -0.66110000      -0.97380000      -0.20110000        6 
C      -2.06060000       1.12330000      -0.24840000        6 
C       0.69670000      -1.54140000       0.08030000        6 
H      -0.40890000       0.75570000       1.09290000        1 
H       0.06310000       1.03180000      -0.62780000        1 
H      -1.40210000      -1.46710000       0.46500000        1 
H      -0.92950000      -1.19060000      -1.25790000        1 
H      -2.81970000       0.66450000       0.42050000        1 
H      -2.34600000       0.94160000      -1.30660000        1 
H      -2.04460000       2.21890000      -0.06820000        1 
H       1.71070000      -0.73760000       0.48750000        1 
H       3.49960000       1.20470000      -0.03670000        1 
