18
Properties=species:S:1:pos:R:3:Z:I:1 pbc="F F F"
O       1.86600000      -1.39330000      -0.30250000        8 
O       3.62590000       1.57610000      -0.59820000        8 
O       3.06310000       0.46180000      -1.01460000        8 
C      -0.32040000      -0.40460000      -0.30290000        6 
C      -1.52770000      -0.05340000       0.57380000        6 
C       0.78590000      -1.06320000       0.52220000        6 
C      -2.63260000       0.60440000      -0.24780000        6 
H      -1.21490000       0.64530000       1.38020000        1 
H      -1.93090000      -0.97660000       1.04440000        1 
H       0.07750000       0.52100000      -0.77400000        1 
H      -0.63640000      -1.10290000      -1.10890000        1 
H       1.12680000      -0.37750000       1.32890000        1 
H       0.40080000      -1.99350000       0.99160000        1 
H      -2.26270000       1.54480000      -0.70910000        1 
H      -3.49220000       0.84690000       0.41200000        1 
H      -2.98130000      -0.08410000      -1.04680000        1 
H       2.48560000      -0.28090000      -0.53770000        1 
H       3.56740000       1.52970000       0.38930000        1 
