18
Properties=species:S:1:pos:R:3:Z:I:1 pbc="F F F"
O       2.70570000      -0.14430000      -0.03280000        8 
O      -0.75150000       3.36020000       0.26080000        8 
O      -0.23740000       2.21160000      -0.12440000        8 
C       0.37390000      -0.14930000      -0.62080000        6 
C      -0.96020000      -0.90160000      -0.51710000        6 
C       1.49770000      -0.82440000       0.17240000        6 
C      -1.59970000      -0.77540000       0.86460000        6 
H      -1.66180000      -0.47300000      -1.26500000        1 
H      -0.81630000      -1.97540000      -0.76630000        1 
H       0.22060000       1.11170000      -0.19410000        1 
H       0.66850000      -0.11060000      -1.69230000        1 
H       1.26360000      -0.79080000       1.25610000        1 
H       1.60030000      -1.89230000      -0.12810000        1 
H      -0.99170000      -1.30150000       1.62930000        1 
H      -2.60840000      -1.23920000       0.84730000        1 
H      -1.70800000       0.29320000       1.14760000        1 
H       3.04040000      -0.42130000      -0.92570000        1 
H      -0.03580000       4.02250000       0.08860000        1 
