17
Properties=species:S:1:pos:R:3:Z:I:1 pbc="F F F"
O       2.88550000       2.02380000      -0.20530000        8 
O       1.81400000       1.37370000       0.19630000        8 
C       0.26430000      -0.54660000       0.45420000        6 
C      -1.16170000      -0.06390000       0.75250000        6 
C       0.30810000      -1.63040000      -0.62120000        6 
C      -1.75160000       0.76160000      -0.38960000        6 
H       1.02790000       0.48740000       0.07550000        1 
H       0.69810000      -0.96360000       1.38880000        1 
H      -1.13200000       0.57260000       1.66300000        1 
H      -1.82350000      -0.93090000       0.96810000        1 
H       1.34680000      -2.01040000      -0.71660000        1 
H      -0.35600000      -2.47780000      -0.34770000        1 
H      -0.00020000      -1.21830000      -1.60390000        1 
H      -2.73530000       1.17180000      -0.07790000        1 
H      -1.90980000       0.13150000      -1.28920000        1 
H      -1.08070000       1.60940000      -0.64400000        1 
H       3.60620000       1.71020000       0.39690000        1 
