20
Properties=species:S:1:pos:R:3:Z:I:1 pbc="F F F"
O      -0.99930000      -0.33680000      -2.40780000        8 
O       1.09820000       0.40040000      -1.84460000        8 
O       4.24240000      -0.13800000      -0.18960000        8 
O       4.29830000       0.35380000       1.03030000        8 
O       2.11760000       0.00620000      -1.10380000        8 
C      -0.60140000       0.34030000      -0.11940000        6 
C      -1.80250000      -0.44050000       0.43080000        6 
C      -0.02990000      -0.31390000      -1.39210000        6 
C      -2.33720000       0.19970000       1.70860000        6 
H      -2.61760000      -0.46260000      -0.32480000        1 
H      -1.49960000      -1.48700000       0.65290000        1 
H       0.19270000       0.37550000       0.65830000        1 
H      -0.90640000       1.38570000      -0.34600000        1 
H       0.24080000      -1.37350000      -1.17050000        1 
H      -3.20520000      -0.38370000       2.08170000        1 
H      -1.55160000       0.20870000       2.49390000        1 
H      -2.66860000       1.24100000       1.50880000        1 
H      -1.16780000       0.60490000      -2.67480000        1 
H       3.18830000       0.21170000      -0.60690000        1 
H       4.00870000      -0.39200000       1.61480000        1 
