16
Properties=species:S:1:pos:R:3:Z:I:1 pbc="F F F"
O       3.21550000      -1.01290000      -0.57400000        8 
O      -3.01290000      -1.41590000       0.62600000        8 
O       2.26830000      -0.13320000      -0.82050000        8 
C      -0.72770000       0.95030000      -0.29870000        6 
C      -1.22880000      -0.46630000      -0.60520000        6 
C       0.52270000       0.94930000       0.57850000        6 
C      -1.82900000      -1.11930000       0.60640000        6 
H      -1.53030000       1.54180000       0.19390000        1 
H      -0.47740000       1.45140000      -1.25850000        1 
H      -0.39650000      -1.09560000      -0.98700000        1 
H      -1.99600000      -0.40240000      -1.40790000        1 
H       1.50750000       0.19950000      -0.00560000        1 
H       0.29630000       0.54240000       1.58590000        1 
H       0.89220000       1.98960000       0.69740000        1 
H      -1.21050000      -1.34060000       1.46960000        1 
H       3.70680000      -0.63820000       0.19980000        1 
