16
Properties=species:S:1:pos:R:3:Z:I:1 pbc="F F F"
O       0.36790000      -0.78130000       0.77470000        8 
O       3.33680000       0.34520000       0.15880000        8 
O       3.96400000       1.32520000       0.77490000        8 
O       1.03690000       0.31620000       0.47350000        8 
C      -1.81430000      -0.71350000      -0.26870000        6 
C      -0.35010000      -1.14960000      -0.37940000        6 
C      -1.96960000       0.80480000      -0.31170000        6 
H      -2.24910000      -1.10270000       0.67750000        1 
H      -2.38440000      -1.15380000      -1.11530000        1 
H       0.10350000      -0.76080000      -1.32280000        1 
H      -0.32660000      -2.25740000      -0.45490000        1 
H      -1.51540000       1.21460000      -1.23890000        1 
H      -3.04860000       1.06680000      -0.30000000        1 
H      -1.48740000       1.27040000       0.57340000        1 
H       2.18490000       0.60380000       0.27750000        1 
H       4.15140000       0.97220000       1.68150000        1 
