12
Properties=species:S:1:pos:R:3:Z:I:1 pbc="F F F"
O       0.18900000      -0.38260000      -0.85720000        8 
O       3.37230000      -0.15140000      -0.14830000        8 
O       1.25310000      -1.03620000      -0.43200000        8 
O       3.38940000       1.03920000       0.41200000        8 
C      -0.66800000      -0.28780000       0.24890000        6 
C      -1.93160000       0.45760000      -0.15250000        6 
H      -0.95030000      -1.30390000       0.60650000        1 
H      -0.17120000       0.26940000       1.07530000        1 
H      -2.61430000       0.53570000       0.71990000        1 
H      -2.45150000      -0.08730000      -0.96890000        1 
H      -1.67530000       1.48030000      -0.50180000        1 
H       2.25840000      -0.53300000      -0.00180000        1 
