10
Properties=species:S:1:pos:R:3:Z:I:1 pbc="F F F"
O      -0.83450000      -0.88270000       0.64050000        8 
O       1.88080000       0.28410000      -0.94300000        8 
O       2.45800000       0.70620000       0.16240000        8 
O      -0.01820000      -1.01120000      -0.38750000        8 
C      -1.75310000       0.10940000       0.27430000        6 
H      -1.23260000       1.07380000       0.08290000        1 
H      -2.32700000      -0.20130000      -0.62660000        1 
H      -2.46980000       0.26090000       1.10740000        1 
H       1.03990000      -0.46770000      -0.57510000        1 
H       3.25640000       0.12850000       0.26470000        1 
