12
Properties=species:S:1:pos:R:3:Z:I:1 pbc="F F F"
O      -1.30480000      -0.38190000      -0.78000000        8 
O       2.63310000       0.85510000       0.59850000        8 
O       1.98880000      -0.19310000       0.13140000        8 
C      -0.28670000      -1.22450000      -0.29390000        6 
C      -1.44320000       0.71570000       0.09190000        6 
H       0.86600000      -0.56410000      -0.16170000        1 
H      -0.58120000      -1.68700000       0.67430000        1 
H      -0.12500000      -2.04380000      -1.02430000        1 
H      -2.26850000       1.35820000      -0.27780000        1 
H      -1.71090000       0.38600000       1.12100000        1 
H      -0.51910000       1.33510000       0.10920000        1 
H       2.75150000       1.44450000      -0.18840000        1 
