5
Properties=species:S:1:pos:R:3:Z:I:1 pbc="F F F"
O      -0.10040000      -0.55580000       0.44090000        8 
O      -1.11120000      -0.24500000      -0.34350000        8 
O       1.92300000       0.40010000      -0.06510000        8 
H       0.77360000      -0.18600000      -0.07700000        1 
H      -1.48500000       0.58670000       0.04480000        1 
