17
Properties=species:S:1:pos:R:3:Z:I:1 pbc="F F F"
O       2.16230000       0.05870000      -1.44900000        8 
O       3.09090000      -0.56000000      -0.75020000        8 
C      -0.69550000      -0.67850000      -0.49940000        6 
C      -1.91370000      -1.04800000       0.34520000        6 
C      -0.09630000       1.55610000       0.58590000        6 
C       0.34280000       0.12510000       0.29090000        6 
H      -1.01970000      -0.10670000      -1.39560000        1 
H      -0.21230000      -1.61410000      -0.85270000        1 
H      -2.58690000      -1.70440000      -0.24540000        1 
H      -1.60020000      -1.59440000       1.26010000        1 
H      -2.48050000      -0.13860000       0.63400000        1 
H      -0.39070000       2.07090000      -0.35270000        1 
H       0.75150000       2.10920000       1.04060000        1 
H      -0.94640000       1.56570000       1.29930000        1 
H       0.63260000      -0.40030000       1.22670000        1 
H       1.26990000       0.19690000      -0.70090000        1 
H       3.69220000       0.16250000      -0.43680000        1 
