18
Properties=species:S:1:pos:R:3:Z:I:1 pbc="F F F"
O       0.13830000       2.28980000      -0.43260000        8 
O       2.33290000       0.16340000      -0.06940000        8 
O       2.34530000      -0.69420000       0.92930000        8 
C      -0.95690000       0.16300000      -0.15300000        6 
C      -0.63070000       0.06400000       1.34160000        6 
C      -1.07210000      -1.23740000      -0.76360000        6 
C       0.12080000       0.96890000      -0.88630000        6 
H      -1.93570000       0.67850000      -0.27190000        1 
H      -0.60490000       1.07550000       1.79960000        1 
H      -1.41100000      -0.52800000       1.86590000        1 
H       0.35550000      -0.42510000       1.49540000        1 
H      -1.86170000      -1.81960000      -0.24230000        1 
H      -1.35050000      -1.16620000      -1.83680000        1 
H      -0.10740000      -1.78290000      -0.67840000        1 
H      -0.06900000       0.96800000      -1.98150000        1 
H       1.09930000       2.50390000      -0.32330000        1 
H       1.16200000       0.35880000      -0.29020000        1 
H       2.44560000      -1.58030000       0.49740000        1 
