14
Properties=species:S:1:pos:R:3:Z:I:1 pbc="F F F"
O       1.89500000       0.30190000       0.92650000        8 
O       2.91670000       0.48260000       0.11610000        8 
C      -1.07760000       1.12260000      -0.60120000        6 
C      -0.88490000      -1.10490000       0.56400000        6 
C      -0.21640000      -0.11510000      -0.38210000        6 
H      -2.04920000       0.84140000      -1.06070000        1 
H      -1.26020000       1.63750000       0.36550000        1 
H      -0.54810000       1.82220000      -1.28080000        1 
H      -0.21900000      -1.98090000       0.70870000        1 
H      -1.06410000      -0.62890000       1.55120000        1 
H      -1.85060000      -1.45360000       0.13980000        1 
H      -0.00690000      -0.60670000      -1.35650000        1 
H       0.98880000       0.07660000       0.21700000        1 
H       3.37650000      -0.39480000       0.09250000        1 
